geometry optimzed in LAMMPS
_audit_creation_date              2020-12-01 
_audit_creation_method            'lammps2cif' 
_symmetry_space_group_name_H-M    'P1' 
_symmetry_Int_Tables_number       1 
_symmetry_cell_setting            triclinic 
loop_ 
_symmetry_equiv_pos_as_xyz 
  x,y,z 
_cell_length_a                    43.4068586 
_cell_length_b                    45.141052980603746 
_cell_length_c                    44.97141896392739 
_cell_angle_alpha                 90.09431068292866 
_cell_angle_beta                  90.99259805694757 
_cell_angle_gamma                 81.30438747237517 
loop_ 
_atom_site_label 
_atom_site_type_symbol 
_atom_site_fract_x 
_atom_site_fract_y 
_atom_site_fract_z 
_atom_site_charge 
C1          C  0.46097158  0.45174427  0.33380817     0.86900
C2          C  0.47387476  0.47228013  0.31159979    -0.53400
C3          C  0.46586814  0.46776384  0.28241685     0.09800
C4          C  0.44582650  0.44187597  0.27874542     0.20800
C5          C  0.42573398  0.45656410  0.32755444    -0.54100
C6          C  0.41758179  0.45134591  0.29884906     0.09900
C7          C  0.47280213  0.41999740  0.32328425    -0.53600
C8          C  0.46429490  0.41402292  0.29481991     0.10500
H9          H  0.48767879  0.48908135  0.31887773     0.15000
H10         H  0.43874598  0.43707564  0.25567926     0.00700
H11         H  0.40871141  0.46410548  0.34443281     0.15300
H12         H  0.48558757  0.40315600  0.33791195     0.15100
C13         C  0.22420819  0.25298538  0.33846752     0.86900
C14         C  0.20733547  0.23480772  0.31621436    -0.53400
C15         C  0.21415945  0.23925789  0.28687261     0.09800
C16         C  0.23657570  0.26292070  0.28318164     0.20800
C17         C  0.25858614  0.24503479  0.33074804    -0.54100
C18         C  0.26517379  0.25034936  0.30206110     0.09900
C19         C  0.21528023  0.28582280  0.32909879    -0.53600
C20         C  0.22212293  0.29145668  0.30024836     0.10500
H21         H  0.19261525  0.21899631  0.32353227     0.15000
H22         H  0.24274686  0.26768722  0.26007740     0.00700
H23         H  0.27644176  0.23553511  0.34671093     0.15300
H24         H  0.20720689  0.30341620  0.34487123     0.15100
C25         C  0.43322669  0.28844479  0.49890893     0.86900
C26         C  0.39999871  0.28191406  0.50333052    -0.53400
C27         C  0.39609321  0.25344370  0.49554052     0.09800
C28         C  0.42591470  0.23429185  0.48410149     0.20800
C29         C  0.46148998  0.26200455  0.01587753    -0.54100
C30         C  0.45677144  0.23336569  0.00962571     0.09900
C31         C  0.44062496  0.28093639  0.46643043    -0.53600
C32         C  0.43619687  0.25284811  0.45826739     0.10500
H33         H  0.38858381  0.29662263  0.01634343     0.15000
H34         H  0.42196137  0.21165171  0.47706045     0.00700
H35         H  0.47886091  0.26758548  0.03161230     0.15300
H36         H  0.44835198  0.29677605  0.45112060     0.15100
C37         C  0.22640079  0.40789576  0.49846528     0.86900
C38         C  0.26316646  0.41453097  0.00846304    -0.53400
C39         C  0.26446806  0.44206095  0.49912184     0.09800
C40         C  0.23557813  0.46199889  0.48615522     0.20800
C41         C  0.20833876  0.43213807  0.01688800    -0.54100
C42         C  0.21273344  0.46076951  0.01061268     0.09900
C43         C  0.22109540  0.41608347  0.46555745    -0.53600
C44         C  0.22651064  0.44422683  0.45889777     0.10500
H45         H  0.28153524  0.39781472  0.01755048     0.15000
H46         H  0.24035890  0.48464474  0.48025209     0.00700
H47         H  0.19139325  0.42658157  0.03252025     0.15300
H48         H  0.21460690  0.40060807  0.44888059     0.15100
C49         C  0.48400022  0.50036941  0.20597459     0.86900
C50         C  0.01837395  0.49728490  0.21445518    -0.53400
C51         C  0.02363913  0.50442552  0.24326275     0.09800
C52         C  0.49032561  0.01225475  0.25971281     0.20800
C53         C  0.46940406  0.48070532  0.22790260    -0.54100
C54         C  0.47485779  0.48680165  0.25731423     0.09900
C55         C  0.46877946  0.03100240  0.21182096    -0.53600
C56         C  0.47348202  0.03856357  0.24071709     0.10500
H57         H  0.03721547  0.48943423  0.19943528     0.15000
H58         H  0.49474127  0.01902965  0.28286799     0.00700
H59         H  0.45719925  0.46279374  0.22035313     0.15300
H60         H  0.45936741  0.04721354  0.19493543     0.15100
C61         C  0.48840622  0.15404405  0.03907112     0.86900
C62         C  0.46940045  0.17809253  0.01945465    -0.53400
C63         C  0.47382377  0.20673952  0.02594970     0.09800
C64         C  0.99858848  0.20916402  0.05362239     0.20800
C65         C  0.02388685  0.16023268  0.03668910    -0.54100
C66         C  0.02843400  0.18882684  0.04361645     0.09900
C67         C  0.47983534  0.16339463  0.07095808    -0.53600
C68         C  0.48503716  0.19155490  0.07817341     0.10500
H69         H  0.45383729  0.17241367  0.00200277     0.15000
H70         H  0.00286809  0.23190940  0.05995091     0.00700
H71         H  0.04257587  0.14291304  0.02987606     0.15300
H72         H  0.47038803  0.14881987  0.08645348     0.15100
C73         C  0.18304333  0.04088048  0.03561053     0.86900
C74         C  0.20190295  0.01628752  0.01712541    -0.53400
C75         C  0.19576298  0.48739305  0.02664149     0.07000
C76         C  0.17247553  0.48617872  0.05257502     0.20800
C77         C  0.14912887  0.03568607  0.03182720    -0.54100
C78         C  0.14447584  0.00754324  0.03983703     0.09900
C79         C  0.19210574  0.03284304  0.06797149    -0.53600
C80         C  0.18690148  0.00514957  0.07634569     0.10500
H81         H  0.21699890  0.02143117  0.99955980     0.15000
H82         H  0.16902207  0.46349547  0.05979835     0.00700
H83         H  0.13039279  0.05296091  0.02442396     0.15300
H84         H  0.20157003  0.04811373  0.08307568     0.15100
C85         C  0.19300930  0.20750405  0.20997298     0.86900
C86         C  0.15887642  0.21213638  0.21874830    -0.53400
C87         C  0.15400559  0.20540112  0.24755713     0.09800
C88         C  0.18412794  0.19474823  0.26539510     0.20800
C89         C  0.20863248  0.22680827  0.23209677    -0.54100
C90         C  0.20365570  0.22085220  0.26155193     0.09900
C91         C  0.20540157  0.17503055  0.21833083    -0.53600
C92         C  0.20078195  0.16778839  0.24713985     0.10500
H93         H  0.13988509  0.22034836  0.20340414     0.15000
H94         H  0.17964688  0.18865804  0.28859423     0.00700
H95         H  0.22108955  0.24437758  0.22461452     0.15300
H96         H  0.21457739  0.15848975  0.20191296     0.15100
Zr97       Zr  0.41574407  0.44957172  0.48402049     2.17500
O98         O  0.37512108  0.46089427  0.44580102    -0.50900
O99         O  0.41620751  0.39575683  0.48352578    -0.74100
O100        O  0.43564402  0.43947624  0.43433678    -0.80900
O101        O  0.36260164  0.45830716  0.05016977    -0.82700
O102        O  0.48117930  0.45817683  0.42980198    -0.78300
O103        O  0.36462403  0.44945331  0.00038565    -0.89900
O104        O  0.45634891  0.37375392  0.01830398    -0.75900
O105        O  0.46966410  0.43022885  0.49034825    -0.85400
O106        O  0.42622939  0.43155218  0.03556474    -0.85100
O107        O  0.44292056  0.49044843  0.47206578    -0.71800
O108        O  0.40236200  0.49150697  0.01472957    -0.84000
Zr109      Zr  0.49305668  0.49516437  0.06000556     2.26400
Zr110      Zr  0.49705341  0.47110399  0.47983687     2.06300
Zr111      Zr  0.41115545  0.47509169  0.06502961     2.10000
Zr112      Zr  0.48020838  0.41268194  0.04084587     1.78800
O113        O  0.37018811  0.01181274  0.07663545    -0.92800
O114        O  0.02360772  0.38032935  0.01953149    -0.40600
O115        O  0.46514434  0.45510696  0.07178486    -0.77200
O116        O  0.50942200  0.45182615  0.02982993    -0.95900
O117        O  0.48733290  0.01057793  0.00902816    -0.89200
O118        O  0.44095073  0.01379797  0.05363182    -0.92000
C119        C  0.43148351  0.37362674  0.49789539     1.01700
C120        C  0.35046220  0.45176176  0.02529344     1.14600
C121        C  0.45834965  0.44618962  0.41914045     1.05400
O122        O  0.03689869  0.42602871  0.47050878    -0.94200
O123        O  0.04473656  0.48903300  0.49482861    -0.89900
O124        O  0.04527791  0.49591272  0.04294409    -0.83100
C125        C  0.05891404  0.49472151  0.01777625     1.12100
O126        O  0.38887072  0.04923101  0.46567474    -0.96200
Zr127      Zr  0.43371810  0.03012503  0.00335693     1.88900
O128        O  0.49541982  0.04736002  0.05967472    -0.72800
O129        O  0.01765565  0.00132505  0.44097787    -0.52100
O130        O  0.45018423  0.05731635  0.45713922    -0.96800
O131        O  0.39216950  0.06517984  0.02554026    -0.54000
O132        O  0.46187972  0.06799152  0.02345755    -0.73300
C133        C  0.48271841  0.06955287  0.04369657     0.99000
O134        O  0.02865868  0.49774452  0.10011487    -0.62200
O135        O  0.39600936  0.44229435  0.10340634    -0.57000
O136        O  0.47617103  0.99592897  0.11004956    -0.93600
O137        O  0.42607181  0.48772895  0.11481101    -0.92100
O138        O  0.46393660  0.38231344  0.08066343    -0.92400
O139        O  0.02334525  0.39992492  0.07597473    -0.91200
C140        C  0.45161181  0.49362328  0.12629553     1.17800
H141        H  0.41360567  0.41638320  0.04038489     0.33800
H142        H  0.03018270  0.44675142  0.03162058     0.44600
H143        H  0.43522832  0.03010720  0.06735100     0.38200
H144        H  0.43866404  0.49659717  0.45165549     0.34600
H145        H  0.02275760  0.36075108  0.02913972     0.26400
H146        H  0.03185656  0.48379669  0.42874412     0.32400
H147        H  0.47242591  0.05833378  0.46157789     0.38300
H148        H  0.45380445  0.39702975  0.09516427     0.32700
H149        H  0.37491212  0.45168430  0.10935057     0.31600
H150        H  0.36042062  0.00336267  0.09377647     0.33300
H151        H  0.40162926  0.07304815  0.04351120     0.32300
H152        H  0.02312971  0.41760403  0.08907655     0.36300
H153        H  0.04408625  0.47938157  0.09775050     0.29000
H154        H  0.37605823  0.44256064  0.43351704     0.33200
H155        H  0.38824516  0.07113825  0.46344070     0.36100
H156        H  0.39271909  0.42367822  0.09294898     0.28700
H157        H  0.04026894  0.51460232  0.09637909     0.41600
H158        H  0.02679080  0.41358945  0.45629174     0.31600
H159        H  0.01169861  0.37597956  0.49928973     0.39200
H160        H  0.37744559  0.05243525  0.03325593     0.31100
H161        H  0.50126190  0.01278356  0.43020695     0.31200
H162        H  0.38237482  0.47595036  0.43269785     0.31400
Zr163      Zr  0.49318896  0.18209444  0.23892858     2.17500
O164        O  0.03655467  0.14088539  0.23466303    -0.50900
O165        O  0.99126768  0.18170609  0.18649664    -0.74100
O166        O  0.47522915  0.13334223  0.24009539    -0.80900
O167        O  0.05636537  0.23339547  0.25941076    -0.82700
O168        O  0.42363419  0.14041495  0.25058986    -0.78300
O169        O  0.04906638  0.18816919  0.24020665    -0.89900
O170        O  0.45951016  0.22308445  0.16709035    -0.75900
O171        O  0.44046534  0.19791907  0.22419479    -0.85400
O172        O  0.49042860  0.23334685  0.22428349    -0.85100
O173        O  0.46444014  0.17464585  0.28285232    -0.71800
O174        O  0.01052363  0.21026785  0.28260297    -0.84000
Zr175      Zr  0.42332433  0.26850773  0.29721850     2.26400
Zr176      Zr  0.41131281  0.19190474  0.26794592     2.06300
Zr177      Zr  0.50500954  0.26025253  0.26715932     2.10000
Zr178      Zr  0.43734092  0.24930124  0.21068075     1.78800
O179        O  0.04077417  0.27686512  0.30588640    -0.92800
O180        O  0.39264209  0.23693564  0.18227129    -0.40600
O181        O  0.45185165  0.27622293  0.25342640    -0.77200
O182        O  0.40693863  0.24350079  0.25365742    -0.95900
O183        O  0.42684871  0.21734374  0.31115676    -0.89200
O184        O  0.47637036  0.25337106  0.31090452    -0.92000
C185        C  0.47738733  0.19808278  0.16346183     1.01700
C186        C  0.06627851  0.20747936  0.24838090     1.14600
C187        C  0.44907064  0.12384019  0.24340279     1.05400
O188        O  0.37131897  0.18154581  0.23245826    -0.94200
O189        O  0.36166051  0.21889487  0.28387426    -0.89900
O190        O  0.37144597  0.26032751  0.30917746    -0.83100
C191        C  0.35340384  0.24226798  0.29982550     1.12100
O192        O  0.02474521  0.16242937  0.33248636    -0.96200
Zr193      Zr  0.48002384  0.20199439  0.32465571     1.88900
O194        O  0.42551039  0.26919856  0.35178348    -0.72800
O195        O  0.39143850  0.16128985  0.30553354    -0.52100
O196        O  0.45833525  0.16422719  0.35297166    -0.96800
O197        O  0.02384122  0.21938728  0.35605118    -0.54000
O198        O  0.45704837  0.22733624  0.36799941    -0.73300
C199        C  0.43852005  0.25171978  0.37251560     0.99000
O200        O  0.38359811  0.31195604  0.28709626    -0.62200
O201        O  0.02741510  0.28988236  0.22994125    -0.57000
O202        O  0.44276762  0.31562077  0.30435993    -0.93600
O203        O  0.48764128  0.31373019  0.27851639    -0.92100
O204        O  0.45952373  0.28707916  0.18300886    -0.92400
O205        O  0.39940847  0.29350533  0.19930176    -0.91200
C206        C  0.46510111  0.32778091  0.29378239     1.17800
H207        H  0.00443088  0.23642335  0.20941723     0.33800
H208        H  0.38560287  0.25148753  0.24856051     0.44600
H209        H  0.48267533  0.26537633  0.32706012     0.38200
H210        H  0.46714517  0.15397967  0.28917625     0.34600
H211        H  0.39371772  0.24673962  0.16271273     0.26400
H212        H  0.37965465  0.14775587  0.29415652     0.32400
H213        H  0.46394408  0.16764896  0.37400375     0.38300
H214        H  0.45137452  0.28576892  0.16242356     0.32700
H215        H  0.00932678  0.30285708  0.22076880     0.31600
H216        H  0.04430400  0.29715708  0.29988745     0.33300
H217        H  0.01421699  0.23728741  0.36713552     0.32300
H218        H  0.39671375  0.30451335  0.21836317     0.36300
H219        H  0.39353686  0.32506349  0.27381022     0.29000
H220        H  0.03024502  0.12906886  0.21764323     0.33200
H221        H  0.02922827  0.16103519  0.35414154     0.36100
H222        H  0.03883952  0.30389597  0.24105069     0.28700
H223        H  0.36792520  0.30443792  0.27398390     0.41600
H224        H  0.36283473  0.20131338  0.22381475     0.31600
H225        H  0.39780982  0.21524497  0.17798921     0.39200
H226        H  0.03739376  0.22722301  0.34144002     0.31100
H227        H  0.41007719  0.14806642  0.31335655     0.31200
H228        H  0.03592020  0.12792749  0.25232719     0.31400
Zr229      Zr  0.24368989  0.24644931  0.48358409     2.17500
O230        O  0.28419281  0.24084288  0.44614437    -0.50900
O231        O  0.24221009  0.30049894  0.48287554    -0.74100
O232        O  0.22153567  0.25154960  0.43309583    -0.80900
O233        O  0.31154205  0.23280486  0.05276905    -0.82700
O234        O  0.17117707  0.24316276  0.43189641    -0.78300
O235        O  0.30613069  0.24563710  0.00392700    -0.89900
O236        O  0.21449702  0.32025415  0.02027201    -0.75900
O237        O  0.19045575  0.26655511  0.49155616    -0.85400
O238        O  0.24627225  0.26224476  0.03918936    -0.85100
O239        O  0.21504896  0.20609260  0.47226737    -0.71800
O240        O  0.26933467  0.20210415  0.01765492    -0.84000
Zr241      Zr  0.17995310  0.19865339  0.06253102     2.26400
Zr242      Zr  0.16162993  0.22622750  0.48164807     2.06300
Zr243      Zr  0.26247845  0.21813985  0.06789867     2.10000
Zr244      Zr  0.19235754  0.28123851  0.04404245     1.78800
O245        O  0.30023327  0.17481504  0.08248433    -0.92800
O246        O  0.14763198  0.31379444  0.02252480    -0.40600
O247        O  0.20867448  0.23832708  0.07429986    -0.77200
O248        O  0.16250847  0.24238296  0.03248558    -0.95900
O249        O  0.18590961  0.18315901  0.01193390    -0.89200
O250        O  0.23354950  0.17798138  0.05719772    -0.92000
C251        C  0.22898671  0.32245749  0.49846493     1.01700
C252        C  0.32205382  0.24106453  0.02816110     1.14600
C253        C  0.19559430  0.24961360  0.41936653     1.05400
O254        O  0.11868338  0.26543345  0.46839840    -0.94200
O255        O  0.11488776  0.20784891  0.49802089    -0.89900
O256        O  0.12559279  0.20012906  0.04648540    -0.83100
C257        C  0.11087423  0.20193005  0.02131928     1.12100
O258        O  0.27379267  0.15089609  0.46717931    -0.96200
Zr259      Zr  0.23921115  0.16318803  0.00636077     1.88900
O260        O  0.18039051  0.14476170  0.06108065    -0.72800
O261        O  0.14635216  0.19035784  0.44580358    -0.52100
O262        O  0.21343004  0.13674097  0.46000663    -0.96800
O263        O  0.27465550  0.12344402  0.03131365    -0.54000
O264        O  0.20624787  0.12741840  0.01967747    -0.73300
C265        C  0.18867679  0.12444270  0.04164108     0.99000
O266        O  0.14560984  0.19640268  0.10459229    -0.62200
O267        O  0.28059844  0.25100004  0.10528427    -0.57000
O268        O  0.19707615  0.20364051  0.11472060    -0.93600
O269        O  0.24847764  0.20831751  0.11782090    -0.92100
O270        O  0.21005307  0.31070978  0.08452973    -0.92400
O271        O  0.15411051  0.29622560  0.08229028    -0.91200
C272        C  0.22241092  0.20592059  0.12952752     1.17800
H273        H  0.25908903  0.27737354  0.04406371     0.33800
H274        H  0.14083917  0.25017325  0.03574407     0.44600
H275        H  0.23935675  0.16141562  0.07073299     0.38200
H276        H  0.21766983  0.19986636  0.45179707     0.34600
H277        H  0.14773916  0.33337482  0.03245637     0.26400
H278        H  0.13277245  0.20256511  0.43105540     0.32400
H279        H  0.22054700  0.11522393  0.46413519     0.38300
H280        H  0.21907767  0.29569081  0.09953911     0.32700
H281        H  0.30133555  0.24062084  0.11185412     0.31600
H282        H  0.31936677  0.17683861  0.07149128     0.33300
H283        H  0.26244690  0.11579969  0.04720505     0.32300
H284        H  0.15134348  0.27723470  0.09215986     0.36300
H285        H  0.12960116  0.21446155  0.10283317     0.29000
H286        H  0.28014462  0.25922654  0.43382182     0.33200
H287        H  0.27526633  0.12916643  0.46314280     0.36100
H288        H  0.28497692  0.26884076  0.09428666     0.28700
H289        H  0.13431910  0.17930421  0.10050491     0.41600
H290        H  0.11096258  0.27400138  0.48762821     0.31600
H291        H  0.14617848  0.31559603  0.50096949     0.39200
H292        H  0.29002745  0.13386211  0.04196131     0.31100
H293        H  0.16559061  0.18285202  0.43491232     0.31200
H294        H  0.27948758  0.22448779  0.43292258     0.31400
Zr295      Zr  0.25438945  0.43395195  0.29909203     2.17500
O296        O  0.28896043  0.38618584  0.30408498    -0.50900
O297        O  0.24945084  0.43238062  0.35356076    -0.74100
O298        O  0.30962508  0.43926616  0.30552292    -0.80900
O299        O  0.18259094  0.39623187  0.28582441    -0.82700
O300        O  0.31943795  0.48237147  0.28394600    -0.78300
O301        O  0.23472620  0.38583637  0.29551670    -0.89900
O302        O  0.21892998  0.47465670  0.36913854    -0.75900
O303        O  0.25382072  0.48518558  0.31250737    -0.85400
O304        O  0.20207359  0.45232211  0.31243901    -0.85100
O305        O  0.27066826  0.45806070  0.25536011    -0.71800
O306        O  0.22290699  0.42862941  0.25537574    -0.84000
Zr307      Zr  0.18204103  0.02310019  0.23763724     2.26400
Zr308      Zr  0.26466224  0.01108544  0.26769392     2.06300
Zr309      Zr  0.17072646  0.44815162  0.26907463     2.10000
Zr310      Zr  0.20132647  0.50336756  0.32558387     1.78800
O311        O  0.14954097  0.41968954  0.22966144    -0.92800
O312        O  0.22071071  0.03739479  0.35494095    -0.40600
O313        O  0.16889132  0.49974976  0.28262530    -0.77200
O314        O  0.21233386  0.02881371  0.28217015    -0.95900
O315        O  0.23419946  0.00532703  0.22373619    -0.89200
O316        O  0.18563254  0.47316500  0.22588190    -0.92000
C317        C  0.23559915  0.44923738  0.37396838     1.01700
C318        C  0.20746106  0.37810160  0.29259329     1.14600
C319        C  0.32809848  0.45746970  0.29757930     1.05400
O320        O  0.28723509  0.04125468  0.30468998    -0.94200
O321        O  0.25116048  0.06427786  0.25396209    -0.89900
O322        O  0.19923067  0.07235805  0.24275779    -0.83100
C323        C  0.22550456  0.08164438  0.24760068     1.12100
O324        O  0.27781660  0.41175596  0.20177027    -0.96200
Zr325      Zr  0.23783207  0.45431942  0.21251580     1.88900
O326        O  0.18413703  0.02190157  0.18302905    -0.72800
O327        O  0.30040840  0.01945580  0.22845039    -0.52100
O328        O  0.27919229  0.46898427  0.18238082    -0.96800
O329        O  0.21721158  0.41419120  0.18604823    -0.54000
O330        O  0.21180758  0.47804767  0.16872983    -0.73300
C331        C  0.19475425  0.00361712  0.16232758     0.99000
O332        O  0.14826244  0.06968052  0.22425021    -0.62200
O333        O  0.13017308  0.43847148  0.30296308    -0.57000
O334        O  0.12665016  0.01956609  0.23825496    -0.93600
O335        O  0.12048123  0.47816931  0.25929848    -0.92100
O336        O  0.15488008  0.49526310  0.35213460    -0.92400
O337        O  0.16133766  0.04847918  0.33262029    -0.91200
C338        C  0.11154567  0.50357429  0.24677808     1.17800
H339        H  0.19497085  0.44087347  0.32836866     0.33800
H340        H  0.21031926  0.04910880  0.28938313     0.44600
H341        H  0.17099525  0.47144124  0.20976460     0.38200
H342        H  0.29145079  0.44919790  0.24999844     0.34600
H343        H  0.20822082  0.03943535  0.37325754     0.26400
H344        H  0.31284920  0.03419739  0.23693315     0.32400
H345        H  0.27158266  0.48986593  0.17611974     0.38300
H346        H  0.15754799  0.50359476  0.37224121     0.32700
H347        H  0.11997739  0.42288347  0.29293203     0.31600
H348        H  0.12674110  0.42634457  0.22990154     0.33300
H349        H  0.22178421  0.41716593  0.16485477     0.32300
H350        H  0.14704398  0.05048122  0.31509521     0.36300
H351        H  0.13555643  0.06485338  0.20690604     0.29000
H352        H  0.29988607  0.38702113  0.32351740     0.33200
H353        H  0.27831856  0.41004353  0.17981860     0.36100
H354        H  0.14127397  0.42818246  0.32034996     0.28700
H355        H  0.13333753  0.07410296  0.24066607     0.41600
H356        H  0.28362058  0.03194012  0.32398420     0.31600
H357        H  0.24111415  0.02621067  0.36139549     0.39200
H358        H  0.19429707  0.41949192  0.18717659     0.31100
H359        H  0.31526392  0.00057735  0.22722145     0.31200
H360        H  0.30524904  0.38633668  0.28895948     0.31400
C361        C  0.12216011  0.20878123  0.25934342    -0.16000
C362        C  0.09956517  0.19941567  0.24272043    -0.31200
H363        H  0.11706882  0.22020969  0.28035738     0.13000
H364        H  0.10576992  0.18580586  0.22311759     0.13600
C365        C  0.19571166  0.21370855  0.17718909    -0.16000
C366        C  0.22208695  0.20574519  0.16232245    -0.31200
H367        H  0.17455660  0.22192595  0.16456235     0.13000
H368        H  0.24371464  0.19823443  0.17447562     0.13600
C369        C  0.22640734  0.11434353  0.24503325    -0.16000
C370        C  0.20437301  0.13558842  0.25652443    -0.31200
H371        H  0.24529376  0.12113187  0.23243242     0.13000
H372        H  0.18699695  0.12895091  0.27117968     0.13600
C373        C  0.17778677  0.09545992  0.04508415    -0.16000
C374        C  0.18867514  0.07188814  0.02792263    -0.31200
H375        H  0.16258132  0.09260703  0.06348264     0.13000
H376        H  0.20431322  0.07450835  0.00981706     0.13600
C377        C  0.19179621  0.99422279  0.10759586    -0.16000
C378        C  0.18760682  0.01312279  0.13109884    -0.31200
H379        H  0.19839924  0.97032321  0.11124063     0.13000
H380        H  0.17858883  0.03663390  0.12737668     0.13600
C381        C  0.11310589  0.99840874  0.04046789    -0.16000
C382        C  0.09117957  0.50133862  0.01727811    -0.31200
H383        H  0.10699079  0.98632104  0.05983091     0.13000
H384        H  0.09846443  0.51224701  0.99763590     0.13600
C385        C  0.47969177  0.20443394  0.10846890    -0.16000
C386        C  0.48379328  0.18694571  0.13293763    -0.31200
H387        H  0.97340306  0.22907998  0.11212133     0.13000
H388        H  0.49281444  0.16327164  0.13065564     0.13600
C389        C  0.07872518  0.19445510  0.02042277    -0.16000
C390        C  0.05958834  0.19872683  0.04380410    -0.31200
H391        H  0.07051810  0.18517899  0.99996550     0.13000
H392        H  0.06649417  0.21042155  0.06336543     0.13600
C393        C  0.48191434  0.12291131  0.03191909    -0.16000
C394        C  0.49275263  0.09897605  0.04896539    -0.31200
H395        H  0.96748135  0.12152381  0.01471176     0.13000
H396        H  0.50850260  0.10136865  0.06756800     0.13600
C397        C  0.46967796  0.07036482  0.25046359    -0.16000
C398        C  0.44823647  0.09174318  0.23816836    -0.31200
H399        H  0.48611799  0.07657324  0.26697048     0.13000
H400        H  0.43006937  0.08565405  0.22350150     0.13600
C401        C  0.05564111  0.50198792  0.25578507    -0.16000
C402        C  0.07807508  0.51212615  0.24017042    -0.31200
H403        H  0.05958146  0.98591752  0.27638911     0.13000
H404        H  0.07169249  0.52575330  0.22046365     0.13600
C405        C  0.45292453  0.49712730  0.15887711    -0.16000
C406        C  0.48041785  0.49356159  0.17342245    -0.31200
H407        H  0.43000783  0.00455425  0.16819496     0.13000
H408        H  0.50153240  0.48692256  0.16087659     0.13600
C409        C  0.22075624  0.37678849  0.50555709    -0.16000
C410        C  0.23578764  0.35259274  0.49167577    -0.31200
H411        H  0.20335251  0.37420419  0.52206087     0.13000
H412        H  0.25285938  0.35517783  0.47484787     0.13600
C413        C  0.29848771  0.45278180  0.00267140    -0.16000
C414        C  0.31825548  0.44546338  0.02562956    -0.31200
H415        H  0.30507856  0.46611772  0.98440953     0.13000
H416        H  0.31063368  0.43447648  0.04507428     0.13600
C417        C  0.22648769  0.45568506  0.42802314    -0.16000
C418        C  0.23770868  0.43817109  0.40502258    -0.31200
H419        H  0.21814599  0.47935090  0.42449879     0.13000
H420        H  0.24799634  0.41502172  0.40902363     0.13600
C421        C  0.43974397  0.24211786  0.42707618    -0.16000
C422        C  0.43249826  0.26088629  0.40371742    -0.31200
H423        H  0.44794304  0.21848177  0.42338332     0.13000
H424        H  0.42201441  0.28394561  0.40759765     0.13600
C425        C  0.37135705  0.24140972  0.00299521    -0.16000
C426        C  0.35446377  0.24662703  0.02765543    -0.31200
H427        H  0.36254109  0.22981000  0.98423156     0.13000
H428        H  0.35572130  0.25890762  0.53996146     0.13600
C429        C  0.43793161  0.31963085  0.50701002    -0.16000
C430        C  0.42415751  0.34356460  0.49148162    -0.31200
H431        H  0.45413886  0.32243205  0.52512548     0.13000
H432        H  0.40792675  0.34076075  0.47338108     0.13600
C433        C  0.29719072  0.24437611  0.29093460    -0.16000
C434        C  0.32105349  0.24905068  0.30874823    -0.31200
H435        H  0.30108811  0.23679689  0.26818058     0.13000
H436        H  0.31666047  0.25970602  0.33027008     0.13600
C437        C  0.22062981  0.24720335  0.37125798    -0.16000
C438        C  0.19435819  0.25398103  0.38668120    -0.31200
H439        H  0.24163783  0.23797216  0.38364093     0.13000
H440        H  0.17237283  0.26194142  0.37535489     0.13600
C441        C  0.22343675  0.32260429  0.28946710    -0.16000
C442        C  0.20371213  0.34659770  0.29901133    -0.31200
H443        H  0.24181486  0.32588627  0.27428255     0.13000
H444        H  0.18375806  0.34309782  0.31207683     0.13600
C445        C  0.46801088  0.38242032  0.28334719    -0.16000
C446        C  0.46486289  0.35960910  0.30206342    -0.31200
H447        H  0.47089983  0.37824275  0.25970986     0.13000
H448        H  0.45811210  0.36495204  0.32482489     0.13600
C449        C  0.46862310  0.45640169  0.36626564    -0.16000
C450        C  0.45684990  0.44007996  0.38709839    -0.31200
H451        H  0.48210121  0.47387178  0.37268556     0.13000
H452        H  0.44236705  0.42359733  0.38004083     0.13600
C453        C  0.36146885  0.44937323  0.30554274    -0.16000
C454        C  0.38455549  0.45613777  0.28828996    -0.31200
H455        H  0.36724838  0.43731844  0.32627649     0.13000
H456        H  0.37920190  0.46561536  0.26628483     0.13600
C457        C  0.45846314  0.44926930  0.83374451     0.86900
C458        C  0.47142438  0.46900241  0.81083391    -0.53400
C459        C  0.46217664  0.46458924  0.78198775     0.09800
C460        C  0.44093107  0.43971911  0.77927046     0.20800
C461        C  0.42297081  0.45521091  0.82862256    -0.54100
C462        C  0.41362254  0.45015962  0.80020667     0.09900
C463        C  0.46871292  0.41724085  0.82317497    -0.53600
C464        C  0.45909443  0.41163484  0.79498554     0.10500
H465        H  0.48637367  0.48506848  0.81745139     0.15000
H466        H  0.43288730  0.43504850  0.75647840     0.00700
H467        H  0.40667807  0.46312969  0.84599688     0.15300
H468        H  0.48126771  0.39995463  0.83748594     0.15100
C469        C  0.21408472  0.24561467  0.83687987     0.86900
C470        C  0.19981097  0.22733002  0.81305904    -0.53400
C471        C  0.20999204  0.23107762  0.78478859     0.09800
C472        C  0.23360247  0.25399148  0.78354647     0.20800
C473        C  0.24953128  0.23700630  0.83350584    -0.54100
C474        C  0.25976813  0.24142862  0.80557676     0.09900
C475        C  0.20681733  0.27816595  0.82628320    -0.53600
C476        C  0.21776506  0.28320116  0.79873103     0.10500
H477        H  0.18329039  0.21260471  0.81867196     0.15000
H478        H  0.24249785  0.25794893  0.76118353     0.00700
H479        H  0.26504310  0.22803838  0.85161518     0.15300
H480        H  0.19667854  0.29601704  0.84092128     0.15100
C481        C  0.43912148  0.28621055  0.99939404     0.86900
C482        C  0.40652961  0.27992111  0.00710010    -0.53400
C483        C  0.40178050  0.25155235  0.00007921     0.09800
C484        C  0.43005595  0.23216266  0.98627151     0.20800
C485        C  0.45399022  0.26436042  0.51699653    -0.54100
C486        C  0.45038820  0.23569343  0.50975608     0.09900
C487        C  0.44313807  0.27864839  0.96646418    -0.53600
C488        C  0.43789126  0.25053526  0.95929051     0.10500
H489        H  0.38117183  0.29846898  0.51131832     0.15000
H490        H  0.42520044  0.20958093  0.98001895     0.00700
H491        H  0.46970345  0.27002958  0.53431742     0.15300
H492        H  0.44942998  0.29438816  0.95022353     0.15100
C493        C  0.23037936  0.40799101  0.00063999     0.86900
C494        C  0.25958349  0.41367474  0.50591650    -0.53400
C495        C  0.26765162  0.44286748  0.00112288     0.09800
C496        C  0.23875357  0.46204602  0.98728037     0.20800
C497        C  0.20511271  0.43201152  0.51548049    -0.54100
C498        C  0.20986352  0.46062615  0.50972748     0.09900
C499        C  0.22547761  0.41533812  0.96757182    -0.53600
C500        C  0.23047108  0.44342916  0.96028497     0.10500
H501        H  0.27784634  0.39649300  0.51438787     0.15000
H502        H  0.24328178  0.48464599  0.98092489     0.00700
H503        H  0.18830061  0.42638109  0.53120147     0.15300
H504        H  0.21931011  0.39934744  0.95127008     0.15100
C505        C  0.47904705  0.49604576  0.70469454     0.86900
C506        C  0.01403046  0.49081448  0.71305256    -0.53400
C507        C  0.02015563  0.49766716  0.74174834     0.09800
C508        C  0.49579045  0.01003924  0.75694165     0.20800
C509        C  0.46467206  0.47670066  0.72712605    -0.54100
C510        C  0.47123876  0.48272244  0.75636165     0.09900
C511        C  0.46971927  0.02865341  0.71075945    -0.53600
C512        C  0.47637644  0.03609318  0.73931424     0.10500
H513        H  0.03235784  0.48236095  0.69769805     0.15000
H514        H  0.50150061  0.01646504  0.77993335     0.00700
H515        H  0.45170057  0.45917281  0.72004054     0.15300
H516        H  0.45825829  0.04481595  0.69471459     0.15100
C517        C  0.48244178  0.15647610  0.53868740     0.86900
C518        C  0.46342179  0.18053654  0.51923115    -0.53400
C519        C  0.46718857  0.20915886  0.52640963     0.09800
C520        C  0.99076896  0.21123147  0.55417990     0.20800
C521        C  0.01672703  0.16243296  0.53770237    -0.54100
C522        C  0.02098381  0.19099678  0.54488628     0.09900
C523        C  0.47315158  0.16491101  0.57060280    -0.53600
C524        C  0.47771871  0.19304201  0.57860085     0.10500
H525        H  0.44840184  0.17486872  0.50132084     0.15000
H526        H  0.99479384  0.23399250  0.56072853     0.00700
H527        H  0.03562310  0.14517059  0.53120147     0.15300
H528        H  0.46391788  0.14971804  0.58560258     0.15100
C529        C  0.18230904  0.03805209  0.53883563     0.86900
C530        C  0.20167159  0.01418980  0.51987648    -0.53400
C531        C  0.19342516  0.48703791  0.52648657     0.07000
C532        C  0.17055163  0.48533171  0.55264648     0.20800
C533        C  0.14857761  0.03238900  0.53443136    -0.54100
C534        C  0.14435106  0.00382957  0.54144052     0.09900
C535        C  0.19111180  0.02913908  0.57103899    -0.53600
C536        C  0.18668544  0.00081370  0.57823644     0.10500
H537        H  0.21679131  0.02010124  0.50268540     0.15000
H538        H  0.16665511  0.46257665  0.55916309     0.00700
H539        H  0.12966888  0.04957897  0.52723089     0.15300
H540        H  0.20015871  0.04407792  0.58679815     0.15100
C541        C  0.18960872  0.20294494  0.70626140     0.86900
C542        C  0.15511459  0.20976645  0.71403753    -0.53400
C543        C  0.14861335  0.20272247  0.74238763     0.09800
C544        C  0.17764766  0.18954511  0.76073941     0.20800
C545        C  0.20615889  0.22022003  0.72956128    -0.54100
C546        C  0.19963989  0.21389580  0.75850919     0.09900
C547        C  0.19920625  0.16978878  0.71380938    -0.53600
C548        C  0.19292172  0.16227800  0.74219968     0.10500
H549        H  0.13716210  0.21971229  0.69837638     0.15000
H550        H  0.17188523  0.18308607  0.78346917     0.00700
H551        H  0.22026270  0.23697479  0.72329067     0.15300
H552        H  0.20812563  0.15333624  0.69722124     0.15100
Zr553      Zr  0.41826894  0.44770103  0.98534252     2.17500
O554        O  0.37585911  0.45473337  0.94841512    -0.50900
O555        O  0.41891333  0.39373183  0.98520790    -0.74100
O556        O  0.43603602  0.43976142  0.93479342    -0.80900
O557        O  0.35881604  0.45859454  0.54784008    -0.82700
O558        O  0.48333598  0.45486926  0.92956664    -0.78300
O559        O  0.36220441  0.44851699  0.49829285    -0.89900
O560        O  0.45267914  0.37574807  0.51759116    -0.75900
O561        O  0.47221974  0.42803639  0.99037461    -0.85400
O562        O  0.42235262  0.43361369  0.53443443    -0.85100
O563        O  0.44543845  0.48848577  0.97278894    -0.71800
O564        O  0.39867504  0.49340438  0.51303926    -0.84000
Zr565      Zr  0.48801133  0.49796468  0.55997041     2.26400
Zr566      Zr  0.49976586  0.46872047  0.97932682     2.06300
Zr567      Zr  0.40619129  0.47722570  0.56346874     2.10000
Zr568      Zr  0.47622958  0.41490311  0.54090816     1.78800
O569        O  0.36858809  0.01867747  0.57179170    -0.92800
O570        O  0.01857579  0.37992768  0.51983439    -0.40600
O571        O  0.46021603  0.45760226  0.57136903    -0.77200
O572        O  0.50543452  0.45436564  0.53048212    -0.95900
O573        O  0.48539557  0.01324535  0.50693186    -0.89200
O574        O  0.43840716  0.01721998  0.55095054    -0.92000
C575        C  0.43476469  0.37158889  0.99912715     1.01700
C576        C  0.34752899  0.45093945  0.52294686     1.14600
C577        C  0.45920843  0.44464222  0.91926563     1.05400
O578        O  0.03881118  0.43112241  0.96307545    -0.94200
O579        O  0.04616251  0.48897774  0.99284537    -0.89900
O580        O  0.04323328  0.49470566  0.54502470    -0.83100
C581        C  0.05706923  0.49445721  0.51998889     1.12100
O582        O  0.39233400  0.04651114  0.96702545    -0.96200
Zr583      Zr  0.43189119  0.03293231  0.50036354     1.88900
O584        O  0.49217054  0.05020836  0.55802332    -0.72800
O585        O  0.01612361  0.00567829  0.94169770    -0.52100
O586        O  0.45015370  0.05681567  0.96083611    -0.96800
O587        O  0.39298484  0.07118283  0.52207253    -0.54000
O588        O  0.46070193  0.07013479  0.52001654    -0.73300
C589        C  0.48028324  0.07202741  0.54126668     0.99000
O590        O  0.02437123  0.49823988  0.60185736    -0.62200
O591        O  0.39186715  0.44483254  0.60264186    -0.57000
O592        O  0.47482573  0.99563966  0.60834474    -0.93600
O593        O  0.41907388  0.49120289  0.61331130    -0.92100
O594        O  0.45871599  0.38596444  0.58131735    -0.92400
O595        O  0.01520558  0.39830190  0.57845544    -0.91200
C596        C  0.44515501  0.49463387  0.62537328     1.17800
H597        H  0.40977165  0.41836532  0.53894056     0.33800
H598        H  0.02738331  0.44535194  0.53400809     0.44600
H599        H  0.43277714  0.03368431  0.56453465     0.38200
H600        H  0.44078565  0.49481520  0.95249471     0.34600
H601        H  0.01819377  0.36080112  0.53047340     0.26400
H602        H  0.02543148  0.49270861  0.92696348     0.32400
H603        H  0.47318407  0.05398369  0.96250167     0.38300
H604        H  0.47207374  0.36615883  0.58040361     0.32700
H605        H  0.36982392  0.45259293  0.60695679     0.31600
H606        H  0.36188029  0.01445586  0.59208346     0.33300
H607        H  0.40194140  0.07639863  0.54143083     0.32300
H608        H  0.01683484  0.41663291  0.59013329     0.36300
H609        H  0.03991344  0.47986445  0.60026180     0.29000
H610        H  0.37827417  0.43627578  0.93619589     0.33200
H611        H  0.38870611  0.06868361  0.96803056     0.36100
H612        H  0.39127447  0.42519763  0.59298718     0.28700
H613        H  0.03608876  0.51503884  0.59818173     0.41600
H614        H  0.02792848  0.41381086  0.95874230     0.31600
H615        H  0.01714997  0.37746878  0.99863791     0.39200
H616        H  0.37557310  0.06043798  0.52732881     0.31100
H617        H  0.50112743  0.00767495  0.92856870     0.31200
H618        H  0.38055756  0.47073060  0.93493671     0.31400
Zr619      Zr  0.48876962  0.18154985  0.73904814     2.17500
O620        O  0.03290816  0.14192270  0.73640832    -0.50900
O621        O  0.98394266  0.18162440  0.68623612    -0.74100
O622        O  0.47333733  0.13167135  0.74031036    -0.80900
O623        O  0.04977210  0.23399921  0.75734788    -0.82700
O624        O  0.42215682  0.13667070  0.75231678    -0.78300
O625        O  0.04244396  0.19037512  0.73470056    -0.89900
O626        O  0.45258240  0.22164408  0.66836696    -0.75900
O627        O  0.43535604  0.19544529  0.72552974    -0.85400
O628        O  0.48361347  0.23306666  0.72477612    -0.85100
O629        O  0.46140163  0.17301310  0.78344357    -0.71800
O630        O  0.00537700  0.20890102  0.78273487    -0.84000
Zr631      Zr  0.41716304  0.26541619  0.79902277     2.26400
Zr632      Zr  0.40761277  0.18808684  0.76990006     2.06300
Zr633      Zr  0.49856885  0.26019966  0.76728126     2.10000
Zr634      Zr  0.42997711  0.24707366  0.71226361     1.78800
O635        O  0.03373921  0.27462353  0.80743625    -0.92800
O636        O  0.38601931  0.23342845  0.68367987    -0.40600
O637        O  0.44465893  0.27435307  0.75470037    -0.77200
O638        O  0.40074611  0.23987097  0.75582951    -0.95900
O639        O  0.42340293  0.21406563  0.81260667    -0.89200
O640        O  0.47095215  0.25217120  0.81134044    -0.92000
C641        C  0.47102219  0.19708278  0.66409920     1.01700
C642        C  0.05960715  0.20944998  0.74359099     1.14600
C643        C  0.44795922  0.12098145  0.74451808     1.05400
O644        O  0.36642010  0.17969092  0.73479776    -0.94200
O645        O  0.35814669  0.21172287  0.78996608    -0.89900
O646        O  0.36592651  0.25506209  0.81288983    -0.83100
C647        C  0.34890411  0.23526758  0.80541546     1.12100
O648        O  0.01898651  0.15870412  0.83251316    -0.96200
Zr649      Zr  0.47717514  0.20060506  0.82480109     1.88900
O650        O  0.42115654  0.26597351  0.85339097    -0.72800
O651        O  0.39153398  0.15493352  0.80734514    -0.52100
O652        O  0.45842670  0.16121213  0.85320994    -0.96800
O653        O  0.02123278  0.21569746  0.85428469    -0.54000
O654        O  0.45429272  0.22478006  0.86876706    -0.73300
C655        C  0.43524368  0.24873367  0.87374591     0.99000
O656        O  0.37569218  0.30800006  0.79175521    -0.62200
O657        O  0.01704985  0.29152229  0.73108629    -0.57000
O658        O  0.43546811  0.31331357  0.80518316    -0.93600
O659        O  0.47966027  0.31311719  0.77855398    -0.92100
O660        O  0.44881488  0.28480906  0.68164631    -0.92400
O661        O  0.39071016  0.29101206  0.70409028    -0.91200
C662        C  0.45700390  0.32632574  0.79417236     1.17800
H663        H  0.99630896  0.23703139  0.70983770     0.33800
H664        H  0.37901972  0.24697215  0.75144244     0.44600
H665        H  0.47701987  0.26439094  0.82742681     0.38200
H666        H  0.46513478  0.15230340  0.78964989     0.34600
H667        H  0.38986442  0.23886097  0.66288681     0.26400
H668        H  0.37718656  0.14335664  0.79661685     0.32400
H669        H  0.46211241  0.16605693  0.87432878     0.38300
H670        H  0.45709067  0.29837131  0.69604371     0.32700
H671        H  0.02974118  0.30454173  0.74207434     0.31600
H672        H  0.04527865  0.28904154  0.79753999     0.33300
H673        H  0.01321442  0.23517269  0.86357324     0.32300
H674        H  0.38735756  0.30013385  0.72403305     0.36300
H675        H  0.38427563  0.32192260  0.77829334     0.29000
H676        H  0.02860551  0.13038833  0.71844968     0.33200
H677        H  0.02223754  0.15592094  0.85423664     0.36100
H678        H  0.03237223  0.27771467  0.71967627     0.28700
H679        H  0.35962821  0.30029297  0.77929189     0.41600
H680        H  0.35294419  0.19936477  0.73273068     0.31600
H681        H  0.38926740  0.21124109  0.68374455     0.39200
H682        H  0.03564015  0.22066602  0.83886442     0.31100
H683        H  0.41035734  0.14018504  0.81171526     0.31200
H684        H  0.03132441  0.12832161  0.75338822     0.31400
Zr685      Zr  0.25243636  0.24639477  0.98902923     2.17500
O686        O  0.29456019  0.23576457  0.95351440    -0.50900
O687        O  0.25213668  0.30026221  0.98854863    -0.74100
O688        O  0.23449003  0.25581832  0.93862527    -0.80900
O689        O  0.30501818  0.23388342  0.54576804    -0.82700
O690        O  0.18769573  0.23963674  0.93197220    -0.78300
O691        O  0.29858945  0.24518032  0.49655145    -0.89900
O692        O  0.21026687  0.32011595  0.51969805    -0.75900
O693        O  0.19872857  0.26665521  0.99346458    -0.85400
O694        O  0.24048267  0.26161828  0.53442156    -0.85100
O695        O  0.22449966  0.20617509  0.97559416    -0.71800
O696        O  0.26200679  0.20225968  0.51226032    -0.84000
Zr697      Zr  0.17485486  0.19810125  0.56141780     2.26400
Zr698      Zr  0.17052191  0.22649343  0.98156944     2.06300
Zr699      Zr  0.25759472  0.21747710  0.56304900     2.10000
Zr700      Zr  0.18720582  0.28093875  0.54246079     1.78800
O701        O  0.29574921  0.17298322  0.57245116    -0.92800
O702        O  0.14323680  0.31570908  0.52275177    -0.40600
O703        O  0.20428897  0.23773006  0.57215715    -0.77200
O704        O  0.15645777  0.24227221  0.53254398    -0.95900
O705        O  0.17872996  0.18262189  0.51084076    -0.89200
O706        O  0.22813713  0.17756409  0.55363658    -0.92000
C707        C  0.23589555  0.32245274  0.00159447     1.01700
C708        C  0.31494643  0.24173053  0.52072555     1.14600
C709        C  0.21157729  0.25035474  0.92239656     1.05400
O710        O  0.13073947  0.26820831  0.96709210    -0.94200
O711        O  0.12244318  0.20889821  0.99658187    -0.89900
O712        O  0.11970616  0.19971271  0.54789541    -0.83100
C713        C  0.10421596  0.20117423  0.52317467     1.12100
O714        O  0.28437615  0.14625132  0.97585772    -0.96200
Zr715      Zr  0.23179233  0.16308232  0.50259337     1.88900
O716        O  0.17520203  0.14413718  0.56069160    -0.72800
O717        O  0.15133694  0.19449757  0.94403998    -0.52100
O718        O  0.22590506  0.13973928  0.95998867    -0.96800
O719        O  0.27253725  0.12504096  0.52303210    -0.54000
O720        O  0.20373050  0.12524329  0.52130107    -0.73300
C721        C  0.18559486  0.12277297  0.54299948     0.99000
O722        O  0.14130949  0.19815417  0.60446568    -0.62200
O723        O  0.28003529  0.24660469  0.60127104    -0.57000
O724        O  0.19488053  0.20018424  0.61246256    -0.93600
O725        O  0.24566232  0.20721651  0.61394835    -0.92100
O726        O  0.20636389  0.30767433  0.58432248    -0.92400
O727        O  0.14836927  0.29656898  0.58000655    -0.91200
C728        C  0.22040796  0.20311417  0.62647124     1.17800
H729        H  0.25372512  0.27651807  0.53869302     0.33800
H730        H  0.13503886  0.25002939  0.53678936     0.44600
H731        H  0.23452916  0.16093378  0.56694751     0.38200
H732        H  0.22872417  0.20005851  0.95530629     0.34600
H733        H  0.14735778  0.33574942  0.52919974     0.26400
H734        H  0.13829536  0.20850120  0.93033595     0.32400
H735        H  0.20283554  0.14289152  0.95920145     0.38300
H736        H  0.22866776  0.29913527  0.58650861     0.32700
H737        H  0.30108337  0.23543178  0.60555555     0.31600
H738        H  0.30832469  0.17844334  0.58961927     0.33300
H739        H  0.26912280  0.10623044  0.51300831     0.32300
H740        H  0.14482356  0.27767000  0.58959271     0.36300
H741        H  0.12544133  0.21629283  0.60237431     0.29000
H742        H  0.29358506  0.25394356  0.94102796     0.33200
H743        H  0.28571035  0.12419234  0.97449567     0.36100
H744        H  0.28381288  0.26524285  0.59132802     0.28700
H745        H  0.12972478  0.18104573  0.60160916     0.41600
H746        H  0.14218130  0.28230739  0.95656848     0.31600
H747        H  0.15353438  0.31727020  0.00179388     0.39200
H748        H  0.26684168  0.12214026  0.54391472     0.31100
H749        H  0.16980602  0.18637984  0.93231786     0.31200
H750        H  0.28840516  0.22018447  0.94008543     0.31400
Zr751      Zr  0.25152378  0.42803819  0.79966532     2.17500
O752        O  0.28662269  0.38046947  0.80265111    -0.50900
O753        O  0.24779333  0.42744486  0.85431062    -0.74100
O754        O  0.30643619  0.43488365  0.80636367    -0.80900
O755        O  0.18128065  0.38779601  0.78363672    -0.82700
O756        O  0.31456402  0.47939093  0.78642671    -0.78300
O757        O  0.23266107  0.37903744  0.79710234    -0.89900
O758        O  0.21884316  0.47071622  0.86962825    -0.75900
O759        O  0.24928889  0.47960494  0.81296444    -0.85400
O760        O  0.19881870  0.44508491  0.81266775    -0.85100
O761        O  0.26719798  0.45327492  0.75628756    -0.71800
O762        O  0.22065704  0.42203083  0.75575598    -0.84000
Zr763      Zr  0.18054397  0.01252790  0.73917348     2.26400
Zr764      Zr  0.26328717  0.01015791  0.77098575     2.06300
Zr765      Zr  0.16802504  0.44003081  0.76889593     2.10000
Zr766      Zr  0.19649454  0.49638021  0.82583761     1.78800
O767        O  0.14847439  0.41045554  0.72937221    -0.92800
O768        O  0.21319140  0.03193512  0.85453721    -0.40600
O769        O  0.16468006  0.49169786  0.78264090    -0.77200
O770        O  0.20918332  0.02216480  0.78361335    -0.95900
O771        O  0.23427947  0.00224104  0.72652462    -0.89200
O772        O  0.18271983  0.46539663  0.72583997    -0.92000
C773        C  0.23551807  0.44535223  0.87470229     1.01700
C774        C  0.20602942  0.37038091  0.79205190     1.14600
C775        C  0.32409243  0.45425100  0.79940348     1.05400
O776        O  0.27615026  0.04213758  0.81158777    -0.94200
O777        O  0.24479887  0.06110168  0.75355747    -0.89900
O778        O  0.19305845  0.06415394  0.74221500    -0.83100
C779        C  0.21812517  0.07593128  0.74609552     1.12100
O780        O  0.27513972  0.40439444  0.70565200    -0.96200
Zr781      Zr  0.23536720  0.44797511  0.71302672     1.88900
O782        O  0.18197198  0.01206257  0.68478270    -0.72800
O783        O  0.30015340  0.02614463  0.73637900    -0.52100
O784        O  0.27763572  0.46124880  0.68322403    -0.96800
O785        O  0.21514256  0.40847594  0.68516993    -0.54000
O786        O  0.21063509  0.47243864  0.66879527    -0.73300
C787        C  0.19557019  0.99603343  0.66377403     0.99000
O788        O  0.13589517  0.05043223  0.72670837    -0.62200
O789        O  0.12962795  0.42909756  0.80462929    -0.57000
O790        O  0.12670482  0.00273753  0.74517456    -0.93600
O791        O  0.11737885  0.46865991  0.75702878    -0.92100
O792        O  0.15292560  0.48410614  0.85435995    -0.92400
O793        O  0.15291282  0.03222671  0.83041474    -0.91200
C794        C  0.10825441  0.49423964  0.74484093     1.17800
H795        H  0.19229274  0.43347114  0.82876379     0.33800
H796        H  0.20434008  0.04258881  0.79044804     0.44600
H797        H  0.16846618  0.46350086  0.70943942     0.38200
H798        H  0.28826896  0.44508258  0.75118498     0.34600
H799        H  0.20419843  0.02940939  0.87429290     0.26400
H800        H  0.31552231  0.03468886  0.74901769     0.32400
H801        H  0.27080200  0.48232685  0.67716603     0.38300
H802        H  0.13616687  0.48288192  0.83939640     0.32700
H803        H  0.11767558  0.41513630  0.79408784     0.31600
H804        H  0.13219970  0.42440348  0.71871508     0.33300
H805        H  0.22096057  0.41138144  0.66429531     0.32300
H806        H  0.14042649  0.03209360  0.81178405     0.36300
H807        H  0.13299986  0.06385575  0.74420909     0.29000
H808        H  0.29787720  0.38080107  0.82196203     0.33200
H809        H  0.27834866  0.40297828  0.68391998     0.36100
H810        H  0.14154138  0.41675207  0.82036305     0.28700
H811        H  0.14290095  0.06276799  0.71070758     0.41600
H812        H  0.25715570  0.05704823  0.81408682     0.31600
H813        H  0.23590343  0.02585610  0.85762873     0.39200
H814        H  0.19221915  0.41419971  0.68519754     0.31100
H815        H  0.31180849  0.00733192  0.72843702     0.31200
H816        H  0.30256381  0.38152949  0.78736024     0.31400
C817        C  0.11633226  0.20796967  0.75360360    -0.16000
C818        C  0.09261900  0.20262789  0.73579545    -0.31200
H819        H  0.11212634  0.21603262  0.77615066     0.13000
H820        H  0.09768387  0.19162082  0.71452944     0.13600
C821        C  0.19391090  0.20993646  0.67392173    -0.16000
C822        C  0.22051510  0.20186323  0.65929879    -0.31200
H823        H  0.17329302  0.21939951  0.66109779     0.13000
H824        H  0.24191992  0.19334630  0.67135812     0.13600
C825        C  0.21699859  0.10848698  0.74041155    -0.16000
C826        C  0.19542442  0.13016154  0.75173169    -0.31200
H827        H  0.23539969  0.11485428  0.72685344     0.13000
H828        H  0.17876678  0.12422681  0.76757182     0.13600
C829        C  0.17633161  0.09314951  0.54811683    -0.16000
C830        C  0.18781499  0.06930280  0.53156209    -0.31200
H831        H  0.16112559  0.09042272  0.56653997     0.13000
H832        H  0.20334222  0.07205278  0.51340171     0.13600
C833        C  0.19299140  0.98834330  0.60874042    -0.16000
C834        C  0.18682400  0.00577790  0.63296693    -0.31200
H835        H  0.20255074  0.96480444  0.61119841     0.13000
H836        H  0.17489117  0.02858239  0.63011248     0.13600
C837        C  0.11325393  0.99402609  0.54116060    -0.16000
C838        C  0.08897530  0.50193918  0.51967562    -0.31200
H839        H  0.10680568  0.98191239  0.56036798     0.13000
H840        H  0.09605646  0.51297522  0.50001698     0.13600
C841        C  0.47201379  0.20490054  0.60922488    -0.16000
C842        C  0.47730680  0.18683792  0.63324626    -0.31200
H843        H  0.96598547  0.23039674  0.61314351     0.13000
H844        H  0.48740405  0.16350479  0.63029891     0.13600
C845        C  0.07229796  0.19351840  0.52301264    -0.16000
C846        C  0.05210619  0.20092868  0.54511549    -0.31200
H847        H  0.06487441  0.18189974  0.50359451     0.13000
H848        H  0.05810112  0.21504580  0.56324336     0.13600
C849        C  0.47723572  0.12543817  0.53061716    -0.16000
C850        C  0.48933241  0.10154314  0.54703926    -0.31200
H851        H  0.96225332  0.12302722  0.51395646     0.13000
H852        H  0.50479646  0.10416909  0.56581440     0.13600
C853        C  0.47231183  0.06792322  0.74920899    -0.16000
C854        C  0.44843422  0.08852422  0.73956685    -0.31200
H855        H  0.49040195  0.07483906  0.76344956     0.13000
H856        H  0.42896766  0.08145559  0.72741315     0.13600
C857        C  0.05233659  0.49382651  0.75380489    -0.16000
C858        C  0.07502641  0.50269284  0.73769752    -0.31200
H859        H  0.06360546  0.01748208  0.76599735     0.13000
H860        H  0.06897696  0.51607302  0.71776415     0.13600
C861        C  0.44666869  0.49626378  0.65804897    -0.16000
C862        C  0.47419337  0.48964415  0.67229735    -0.31200
H863        H  0.42998677  0.00192953  0.66768973     0.13000
H864        H  0.49473354  0.48160097  0.65939264     0.13600
C865        C  0.22550627  0.37677587  0.00790163    -0.16000
C866        C  0.24210546  0.35276596  0.99495461    -0.31200
H867        H  0.20745601  0.37395822  0.02364849     0.13000
H868        H  0.26008471  0.35564664  0.97914489     0.13600
C869        C  0.29551649  0.45163080  0.50050169    -0.16000
C870        C  0.31568216  0.44360806  0.52299949    -0.31200
H871        H  0.30171290  0.46583057  0.48276288     0.13000
H872        H  0.30844909  0.43186693  0.54213124     0.13600
C873        C  0.23001255  0.45412782  0.92905176    -0.16000
C874        C  0.23958917  0.43565299  0.90616268    -0.31200
H875        H  0.22193943  0.47775748  0.92500477     0.13000
H876        H  0.24964437  0.41252046  0.91057176     0.13600
C877        C  0.43897989  0.23939846  0.92821373    -0.16000
C878        C  0.43014201  0.25790188  0.90501746    -0.31200
H879        H  0.44726731  0.21578708  0.92447332     0.13000
H880        H  0.41961066  0.28091433  0.90909358     0.13600
C881        C  0.36554177  0.24275665  0.49671330    -0.16000
C882        C  0.34704284  0.24858684  0.52028813    -0.31200
H883        H  0.35829485  0.22994906  0.47807832     0.13000
H884        H  0.36432579  0.25586965  0.04734841     0.13600
C885        C  0.44444359  0.31738595  0.00644466    -0.16000
C886        C  0.42787182  0.34136544  0.99294332    -0.31200
H887        H  0.46291451  0.32017345  0.02235897     0.13000
H888        H  0.40953187  0.33850056  0.97690547     0.13600
C889        C  0.29288203  0.23472010  0.79695404    -0.16000
C890        C  0.31626726  0.24033097  0.81508820    -0.31200
H891        H  0.29791672  0.22701524  0.77440484     0.13000
H892        H  0.31108244  0.25113441  0.83641116     0.13600
C893        C  0.20350509  0.24131474  0.86833374    -0.16000
C894        C  0.21473387  0.25662367  0.89062073    -0.31200
H895        H  0.18831229  0.22489680  0.87295642     0.13000
H896        H  0.23079797  0.27206288  0.88522823     0.13600
C897        C  0.22093632  0.31426898  0.78844625    -0.16000
C898        C  0.20213368  0.33884149  0.79830306    -0.31200
H899        H  0.23969855  0.31694239  0.77349877     0.13000
H900        H  0.18168045  0.33595108  0.81088396     0.13600
C901        C  0.46180415  0.38025557  0.78359036    -0.16000
C902        C  0.45552359  0.35833433  0.80192336    -0.31200
H903        H  0.46741795  0.37549730  0.76047554     0.13000
H904        H  0.44653309  0.36454419  0.82384908     0.13600
C905        C  0.46779506  0.45396741  0.86580523    -0.16000
C906        C  0.45658020  0.43817887  0.88736325    -0.31200
H907        H  0.48201390  0.47109631  0.87140885     0.13000
H908        H  0.44133217  0.42208339  0.88110356     0.13600
C909        C  0.35764341  0.44715625  0.80745470    -0.16000
C910        C  0.38028116  0.45544452  0.79054605    -0.31200
H911        H  0.36400322  0.43415022  0.82754040     0.13000
H912        H  0.37440197  0.46589964  0.76904066     0.13600
C913        C  0.45852581  0.95131696  0.33230457     0.86900
C914        C  0.47113755  0.97159274  0.30979213    -0.53400
C915        C  0.46140606  0.96790737  0.28099658     0.09800
C916        C  0.43985829  0.94331104  0.27797418     0.20800
C917        C  0.42298066  0.95754516  0.32788961    -0.54100
C918        C  0.41312684  0.95338877  0.29946840     0.09900
C919        C  0.46842655  0.91955620  0.32085780    -0.53600
C920        C  0.45819617  0.91475809  0.29269102     0.10500
H921        H  0.48650953  0.98722396  0.31656681     0.15000
H922        H  0.43135999  0.93940188  0.25514302     0.00700
H923        H  0.40709460  0.96518418  0.34567673     0.15300
H924        H  0.48009668  0.90172671  0.33506965     0.15100
C925        C  0.23172044  0.75165036  0.33716936     0.86900
C926        C  0.21628463  0.73257557  0.31471425    -0.53400
C927        C  0.22262586  0.73789786  0.28554008     0.09800
C928        C  0.24361330  0.76283812  0.28216019     0.20800
C929        C  0.26654138  0.74579319  0.32973852    -0.54100
C930        C  0.27275214  0.75156684  0.30095694     0.09900
C931        C  0.22087656  0.78424595  0.32802526    -0.53600
C932        C  0.22749300  0.79053660  0.29934886     0.10500
H933        H  0.20260170  0.71577322  0.32177462     0.15000
H934        H  0.24942576  0.76839193  0.25918227     0.00700
H935        H  0.28478233  0.73732820  0.34575122     0.15300
H936        H  0.21154211  0.80137083  0.34381780     0.15100
C937        C  0.43070966  0.78959802  0.49846116     0.86900
C938        C  0.39748926  0.78262257  0.50154856    -0.53400
C939        C  0.39431328  0.75406219  0.49342713     0.09800
C940        C  0.42483404  0.73530248  0.48289874     0.20800
C941        C  0.45221690  0.76285605  0.01797215    -0.54100
C942        C  0.44780507  0.73421586  0.01170516     0.09900
C943        C  0.43954786  0.78229660  0.46624209    -0.53600
C944        C  0.43589767  0.75412486  0.45760769     0.10500
H945        H  0.37950621  0.79768779  0.01683455     0.15000
H946        H  0.42156859  0.71257719  0.47550850     0.00700
H947        H  0.46918964  0.76860576  0.03401975     0.15300
H948        H  0.44782839  0.79832351  0.45151827     0.15100
C949        C  0.22945758  0.90662522  0.49650840     0.86900
C950        C  0.26372946  0.91308216  0.00716448    -0.53400
C951        C  0.26805959  0.94016386  0.49675476     0.09800
C952        C  0.23902106  0.96080519  0.48509630     0.20800
C953        C  0.20924372  0.93243203  0.01559690    -0.54100
C954        C  0.21445502  0.96074946  0.00908327     0.09900
C955        C  0.22294701  0.91586925  0.46399211    -0.53600
C956        C  0.22860528  0.94403282  0.45776596     0.10500
H957        H  0.28161799  0.89587127  0.01621504     0.15000
H958        H  0.24399787  0.98345747  0.47952111     0.00700
H959        H  0.19202064  0.92748854  0.03122771     0.15300
H960        H  0.21546019  0.90104812  0.44718488     0.15100
C961        C  0.48146128  0.99843552  0.20441056     0.86900
C962        C  0.01626861  0.99394419  0.21501987    -0.53400
C963        C  0.02167015  0.00097698  0.24378067     0.09800
C964        C  0.49394102  0.51333804  0.26138200     0.20800
C965        C  0.46605915  0.97935683  0.22631526    -0.54100
C966        C  0.47095898  0.98605740  0.25568304     0.09900
C967        C  0.47108117  0.53267460  0.21405835    -0.53600
C968        C  0.47656664  0.54002662  0.24291493     0.10500
H969        H  0.03504109  0.98580879  0.20001090     0.15000
H970        H  0.49882532  0.51961415  0.28460191     0.00700
H971        H  0.45390561  0.96133733  0.21891589     0.15300
H972        H  0.46143760  0.54903825  0.19739943     0.15100
C973        C  0.48291218  0.65533405  0.03963439     0.86900
C974        C  0.46098461  0.67918472  0.02223850    -0.53400
C975        C  0.46581703  0.70787699  0.02764866     0.09800
C976        C  0.99126856  0.71164520  0.04915303     0.20800
C977        C  0.01401254  0.66315069  0.02923184    -0.54100
C978        C  0.01947724  0.69152811  0.03569296     0.09900
C979        C  0.47863963  0.66418065  0.07235106    -0.53600
C980        C  0.48409408  0.69247140  0.07853445     0.10500
H981        H  0.44347609  0.67336808  0.00677179     0.15000
H982        H  0.99646498  0.73420630  0.05500902     0.00700
H983        H  0.03166673  0.64591445  0.02041185     0.15300
H984        H  0.47192500  0.64922279  0.08914341     0.15100
C985        C  0.17915108  0.54027423  0.03714740     0.86900
C986        C  0.19900069  0.51601827  0.01910336    -0.53400
C987        C  0.19777452  0.98785343  0.02465042     0.07000
C988        C  0.17439702  0.98727706  0.05067470     0.20800
C989        C  0.14571835  0.53379224  0.03309115    -0.54100
C990        C  0.14208034  0.50535401  0.04115251     0.09900
C991        C  0.18800366  0.53292130  0.06965697    -0.53600
C992        C  0.18412924  0.50483200  0.07822249     0.10500
H993        H  0.21382596  0.52157433  0.00150103     0.15000
H994        H  0.17003880  0.96485193  0.05782415     0.00700
H995        H  0.12660217  0.55034769  0.02508321     0.15300
H996        H  0.19675527  0.54880362  0.08455784     0.15100
C997        C  0.20621158  0.70486538  0.20831278     0.86900
C998        C  0.17110211  0.70946288  0.21415937    -0.53400
C999        C  0.16378491  0.70358658  0.24267207     0.09800
C1000       C  0.19248713  0.69384973  0.26289358     0.20800
C1001       C  0.21966952  0.72489590  0.23103518    -0.54100
C1002       C  0.21248005  0.71972555  0.26000257     0.09900
C1003       C  0.21832406  0.67291340  0.21827142    -0.53600
C1004       C  0.21074504  0.66649111  0.24655907     0.10500
H1005       H  0.15357559  0.71707148  0.19719339     0.15000
H1006       H  0.18610977  0.68851618  0.28579564     0.00700
H1007       H  0.23325094  0.74181861  0.22416832     0.15300
H1008       H  0.22931942  0.65606511  0.20296930     0.15100
Zr1009     Zr  0.41821777  0.95002658  0.48154724     2.17500
O1010       O  0.37834094  0.96247038  0.44275890    -0.50900
O1011       O  0.41673865  0.89654039  0.48147393    -0.74100
O1012       O  0.43808069  0.93776673  0.43264034    -0.80900
O1013       O  0.36447179  0.95615300  0.04808882    -0.82700
O1014       O  0.48315022  0.95706600  0.42718312    -0.78300
O1015       O  0.36714365  0.94596921  0.99855689    -0.89900
O1016       O  0.45317844  0.87323843  0.01847968    -0.75900
O1017       O  0.47194213  0.92976925  0.48746921    -0.85400
O1018       O  0.42784935  0.93005585  0.03336624    -0.85100
O1019       O  0.44619159  0.99031697  0.46938041    -0.71800
O1020       O  0.40437912  0.99048551  0.01328709    -0.84000
Zr1021     Zr  0.49479466  0.99354705  0.05902249     2.26400
Zr1022     Zr  0.50021117  0.96997853  0.47686347     2.06300
Zr1023     Zr  0.41290266  0.97304092  0.06325120     2.10000
Zr1024     Zr  0.48172472  0.91075041  0.03863637     1.78800
O1025       O  0.37231610  0.51808295  0.07683135    -0.92800
O1026       O  0.02470078  0.88129606  0.01300610    -0.40600
O1027       O  0.46701283  0.95301232  0.07022491    -0.77200
O1028       O  0.51099022  0.95033479  0.02855034    -0.95900
O1029       O  0.48518838  0.51174468  0.00983970    -0.89200
O1030       O  0.43930226  0.51543163  0.05454860    -0.92000
C1031       C  0.43055316  0.87436911  0.49677888     1.01700
C1032       C  0.35272177  0.94870030  0.02334192     1.14600
C1033       C  0.46038672  0.94459013  0.41710090     1.05400
O1034       O  0.03889969  0.92639947  0.46455548    -0.94200
O1035       O  0.04875538  0.98637670  0.49342176    -0.89900
O1036       O  0.04708641  0.99781266  0.04362075    -0.83100
C1037       C  0.06074734  0.99675764  0.01842937     1.12100
O1038       O  0.38580607  0.54607004  0.46590265    -0.96200
Zr1039     Zr  0.43153832  0.53105539  0.00404392     1.88900
O1040       O  0.49415482  0.54870224  0.05982551    -0.72800
O1041       O  0.02028442  0.49874226  0.44221101    -0.52100
O1042       O  0.44691429  0.55836370  0.46042299    -0.96800
O1043       O  0.39110880  0.56826172  0.02507804    -0.54000
O1044       O  0.45971836  0.56872165  0.02408545    -0.73300
C1045       C  0.48083333  0.57062587  0.04393065     0.99000
O1046       O  0.03356072  0.98367929  0.09936889    -0.62200
O1047       O  0.40176639  0.93827345  0.10168695    -0.57000
O1048       O  0.47610946  0.49655251  0.11149326    -0.93600
O1049       O  0.42575934  0.98808508  0.11245292    -0.92100
O1050       O  0.46938171  0.88339630  0.08244401    -0.92400
O1051       O  0.02381738  0.89696945  0.07345582    -0.91200
C1052       C  0.45115846  0.99365769  0.12430164     1.17800
H1053       H  0.41482672  0.91524847  0.03808287     0.33800
H1054       H  0.03245174  0.94557011  0.03129815     0.44600
H1055       H  0.43389504  0.53184610  0.06819506     0.38200
H1056       H  0.44188378  0.99654066  0.44900002     0.34600
H1057       H  0.02565785  0.86135624  0.02242295     0.26400
H1058       H  0.03180631  0.98772501  0.42820880     0.32400
H1059       H  0.43978713  0.57999320  0.46371610     0.38300
H1060       H  0.47380399  0.86200069  0.07671291     0.32700
H1061       H  0.37888036  0.94222043  0.10409432     0.31600
H1062       H  0.35843904  0.52090355  0.05902974     0.33300
H1063       H  0.39618037  0.58782653  0.01839323     0.32300
H1064       H  0.02347120  0.91421685  0.08714630     0.36300
H1065       H  0.04892056  0.96708326  0.09167725     0.29000
H1066       H  0.37776291  0.94369775  0.43146564     0.33200
H1067       H  0.38460131  0.56782892  0.46218766     0.36100
H1068       H  0.40585020  0.91818305  0.09244376     0.28700
H1069       H  0.04480792  0.00118301  0.10048037     0.41600
H1070       H  0.05480557  0.92460566  0.48075461     0.31600
H1071       H  0.01359696  0.87755992  0.49631787     0.39200
H1072       H  0.39531941  0.56802494  0.04676894     0.31100
H1073       H  0.49578854  0.51299792  0.43194138     0.31200
H1074       H  0.38695923  0.97596282  0.42884384     0.31400
Zr1075     Zr  0.50274390  0.68252038  0.23972849     2.17500
O1076       O  0.04218573  0.64048269  0.23591545    -0.50900
O1077       O  0.99664580  0.68328367  0.18374892    -0.74100
O1078       O  0.48244159  0.63460697  0.23998055    -0.80900
O1079       O  0.06622226  0.73088646  0.25746058    -0.82700
O1080       O  0.43072071  0.64389966  0.25017554    -0.78300
O1081       O  0.05659713  0.68853804  0.23380650    -0.89900
O1082       O  0.47019194  0.72465124  0.16804569    -0.75900
O1083       O  0.45091344  0.70115595  0.22338369    -0.85400
O1084       O  0.50269966  0.73373435  0.22685738    -0.85100
O1085       O  0.47109920  0.67693284  0.28225096    -0.71800
O1086       O  0.01770741  0.70790287  0.28265966    -0.84000
Zr1087     Zr  0.43376249  0.77240424  0.29652268     2.26400
Zr1088     Zr  0.41915434  0.69633155  0.26559331     2.06300
Zr1089     Zr  0.51764681  0.75827007  0.27096341     2.10000
Zr1090     Zr  0.45079760  0.75257212  0.21131499     1.78800
O1091       O  0.05357193  0.76639728  0.30994976    -0.92800
O1092       O  0.40473661  0.74740916  0.18116757    -0.40600
O1093       O  0.46589923  0.77769049  0.25467736    -0.77200
O1094       O  0.41737629  0.74815253  0.25237436    -0.95900
O1095       O  0.43390582  0.72129795  0.30952501    -0.89200
O1096       O  0.48553132  0.75406215  0.31290611    -0.92000
C1097       C  0.48666633  0.69898918  0.16412037     1.01700
C1098       C  0.07493949  0.70646161  0.24325536     1.14600
C1099       C  0.45572633  0.62618530  0.24365057     1.05400
O1100       O  0.38054894  0.69110796  0.22676557    -0.94200
O1101       O  0.36960469  0.72272393  0.28218301    -0.89900
O1102       O  0.37901094  0.76727783  0.30129608    -0.83100
C1103       C  0.36101704  0.74800586  0.29494392     1.12100
O1104       O  0.02157859  0.65769945  0.33494967    -0.96200
Zr1105     Zr  0.48569163  0.70267736  0.32531319     1.88900
O1106       O  0.43518003  0.77209152  0.35115111    -0.72800
O1107       O  0.39552202  0.66577347  0.30069062    -0.52100
O1108       O  0.45912930  0.66499068  0.34834321    -0.96800
O1109       O  0.02980478  0.71233234  0.35523521    -0.54000
O1110       O  0.46007278  0.72719057  0.36789275    -0.73300
C1111       C  0.44422617  0.75310801  0.37204064     0.99000
O1112       O  0.40042070  0.82070190  0.30167749    -0.62200
O1113       O  0.03995148  0.79134747  0.23641244    -0.57000
O1114       O  0.45262754  0.82061719  0.29038726    -0.93600
O1115       O  0.50465869  0.81144122  0.28154997    -0.92100
O1116       O  0.47990546  0.78472646  0.18309400    -0.92400
O1117       O  0.41743087  0.80015442  0.20182786    -0.91200
C1118       C  0.47925627  0.82919143  0.28645126     1.17800
H1119       H  0.01581357  0.73733670  0.20996330     0.33800
H1120       H  0.39652730  0.75688814  0.24638198     0.44600
H1121       H  0.49166780  0.76562737  0.32947063     0.38200
H1122       H  0.47259612  0.65634206  0.28852830     0.34600
H1123       H  0.41022158  0.75229219  0.16065231     0.26400
H1124       H  0.38309683  0.65367088  0.28822622     0.32400
H1125       H  0.46462907  0.66558843  0.36976691     0.38300
H1126       H  0.48646795  0.79882038  0.19797089     0.32700
H1127       H  0.06045693  0.79314988  0.24565001     0.31600
H1128       H  0.07107410  0.77366748  0.29981208     0.33300
H1129       H  0.02444583  0.73304874  0.36277607     0.32300
H1130       H  0.41565544  0.81026286  0.22142100     0.36300
H1131       H  0.38424877  0.82130062  0.28579070     0.29000
H1132       H  0.03630626  0.62797520  0.21925394     0.33200
H1133       H  0.02183874  0.65527777  0.35684328     0.36100
H1134       H  0.04501549  0.77898930  0.21845620     0.28700
H1135       H  0.38920720  0.81951957  0.32052575     0.41600
H1136       H  0.39257082  0.68057836  0.21035659     0.31600
H1137       H  0.40402687  0.72560248  0.18073015     0.39200
H1138       H  0.04673416  0.71337787  0.34097968     0.31100
H1139       H  0.41302820  0.65117187  0.30863195     0.31200
H1140       H  0.04002640  0.62873330  0.25414511     0.31400
Zr1141     Zr  0.24288575  0.74536976  0.48139660     2.17500
O1142       O  0.28379223  0.73728369  0.44440461    -0.50900
O1143       O  0.24309847  0.79916692  0.48003759    -0.74100
O1144       O  0.22293836  0.74990591  0.43067533    -0.80900
O1145       O  0.29952444  0.73580110  0.05218076    -0.82700
O1146       O  0.17306886  0.74037043  0.42745002    -0.78300
O1147       O  0.29711903  0.74616019  0.00262825    -0.89900
O1148       O  0.20697850  0.82152752  0.01541175    -0.75900
O1149       O  0.18935750  0.76600722  0.48726144    -0.85400
O1150       O  0.23481278  0.76486330  0.03536028    -0.85100
O1151       O  0.21405852  0.70510811  0.47036678    -0.71800
O1152       O  0.25976523  0.70468043  0.01712685    -0.84000
Zr1153     Zr  0.16815400  0.70062344  0.05462781     2.26400
Zr1154     Zr  0.16031595  0.72581146  0.47757491     2.06300
Zr1155     Zr  0.24910393  0.72224525  0.06651871     2.10000
Zr1156     Zr  0.18065753  0.78343385  0.03645809     1.78800
O1157       O  0.28538529  0.68011877  0.08611650    -0.92800
O1158       O  0.13978908  0.81916461  0.01300546    -0.40600
O1159       O  0.19461423  0.74152481  0.06887596    -0.77200
O1160       O  0.15278825  0.74340257  0.02326070    -0.95900
O1161       O  0.17811057  0.68305438  0.00536719    -0.89200
O1162       O  0.22239581  0.68128223  0.05359232    -0.92000
C1163       C  0.22844938  0.82169762  0.49389711     1.01700
C1164       C  0.31167053  0.74264332  0.02767263     1.14600
C1165       C  0.19804593  0.74690335  0.41588148     1.05400
O1166       O  0.11892599  0.76687687  0.46516049    -0.94200
O1167       O  0.11305168  0.70747432  0.49355714    -0.89900
O1168       O  0.11624673  0.69725047  0.03573841    -0.83100
C1169       C  0.10178129  0.70097474  0.01059989     1.12100
O1170       O  0.27211370  0.64574160  0.46851326    -0.96200
Zr1171     Zr  0.23226791  0.66442548  0.00404599     1.88900
O1172       O  0.16683630  0.64715872  0.05418728    -0.72800
O1173       O  0.14371862  0.69074385  0.44160355    -0.52100
O1174       O  0.21263022  0.63657953  0.45882200    -0.96800
O1175       O  0.27015643  0.62710744  0.02955517    -0.54000
O1176       O  0.20275420  0.62662323  0.02094563    -0.73300
C1177       C  0.18076755  0.62502393  0.03929224     0.99000
O1178       O  0.12647097  0.71511747  0.09012190    -0.62200
O1179       O  0.26560828  0.75603014  0.10392487    -0.57000
O1180       O  0.18480114  0.69043876  0.10569482    -0.93600
O1181       O  0.22760283  0.71292991  0.11454540    -0.92100
O1182       O  0.19470349  0.81281178  0.07868708    -0.92400
O1183       O  0.13676115  0.79783613  0.06911834    -0.91200
C1184       C  0.20519909  0.69950441  0.12300716     1.17800
H1185       H  0.24731516  0.78009132  0.04075652     0.33800
H1186       H  0.13077514  0.75060061  0.02519819     0.44600
H1187       H  0.22750171  0.66497859  0.06756608     0.38200
H1188       H  0.21734230  0.69828465  0.45015405     0.34600
H1189       H  0.14373367  0.83901711  0.02022180     0.26400
H1190       H  0.13310171  0.70326401  0.42530142     0.32400
H1191       H  0.22114744  0.61523632  0.46235820     0.38300
H1192       H  0.20070147  0.79796888  0.09473819     0.32700
H1193       H  0.28720783  0.74720481  0.10953909     0.31600
H1194       H  0.29169705  0.68685045  0.10596994     0.33300
H1195       H  0.25954786  0.62110665  0.04738613     0.32300
H1196       H  0.13634582  0.78007471  0.08189985     0.36300
H1197       H  0.13561021  0.72653699  0.10594438     0.29000
H1198       H  0.28078935  0.75534563  0.43158875     0.33200
H1199       H  0.27621596  0.66412887  0.45830331     0.36100
H1200       H  0.26780228  0.77460878  0.09301837     0.28700
H1201       H  0.11137022  0.73056719  0.07988318     0.41600
H1202       H  0.10679788  0.77067650  0.48358266     0.31600
H1203       H  0.14318822  0.81526577  0.49547630     0.39200
H1204       H  0.28622585  0.63854017  0.03750730     0.31100
H1205       H  0.16326812  0.68052379  0.43285455     0.31200
H1206       H  0.27867288  0.72081021  0.43154863     0.31400
Zr1207     Zr  0.25197303  0.93432320  0.29761844     2.17500
O1208       O  0.28885504  0.88776524  0.29646668    -0.50900
O1209       O  0.24794364  0.93282817  0.35205657    -0.74100
O1210       O  0.30594453  0.94146416  0.30683742    -0.80900
O1211       O  0.18231267  0.89373785  0.28320124    -0.82700
O1212       O  0.31489423  0.98458649  0.28462187    -0.78300
O1213       O  0.23378070  0.88565327  0.29641426    -0.89900
O1214       O  0.21695285  0.97484672  0.36774435    -0.75900
O1215       O  0.24975581  0.98569340  0.31086638    -0.85400
O1216       O  0.19927209  0.95106851  0.31081437    -0.85100
O1217       O  0.26768458  0.95917303  0.25415622    -0.71800
O1218       O  0.22117284  0.92769602  0.25392804    -0.84000
Zr1219     Zr  0.18565491  0.52432155  0.23958730     2.26400
Zr1220     Zr  0.26908414  0.50980984  0.26893683     2.06300
Zr1221     Zr  0.16869601  0.94593488  0.26707296     2.10000
Zr1222     Zr  0.19704901  0.00237203  0.32387061     1.78800
O1223       O  0.14842543  0.91788668  0.22680843    -0.92800
O1224       O  0.22753241  0.53573981  0.35760747    -0.40600
O1225       O  0.16569840  0.99775072  0.28039647    -0.77200
O1226       O  0.21707943  0.52889802  0.28361584    -0.95900
O1227       O  0.23754414  0.50567071  0.22533820    -0.89200
O1228       O  0.18304702  0.97174610  0.22400686    -0.92000
C1229       C  0.23438905  0.94976803  0.37255010     1.01700
C1230       C  0.20736362  0.87667810  0.29171280     1.14600
C1231       C  0.32386090  0.96014487  0.29900554     1.05400
O1232       O  0.29295463  0.53979594  0.30523999    -0.94200
O1233       O  0.25745011  0.56278973  0.25547858    -0.89900
O1234       O  0.20581511  0.57228428  0.24300245    -0.83100
C1235       C  0.23244315  0.58065929  0.24845575     1.12100
O1236       O  0.27470343  0.90994726  0.20235244    -0.96200
Zr1237     Zr  0.23552669  0.95365767  0.21119898     1.88900
O1238       O  0.18602556  0.52255013  0.18486589    -0.72800
O1239       O  0.30458527  0.51770066  0.22933244    -0.52100
O1240       O  0.27813911  0.96389858  0.18013650    -0.96800
O1241       O  0.21245571  0.91446873  0.18552278    -0.54000
O1242       O  0.21161323  0.97819207  0.16698404    -0.73300
C1243       C  0.19528526  0.50367764  0.16415188     0.99000
O1244       O  0.15357492  0.57319394  0.23235325    -0.62200
O1245       O  0.12788160  0.93547493  0.30032421    -0.57000
O1246       O  0.12985733  0.52151269  0.23802028    -0.93600
O1247       O  0.11817211  0.97495165  0.25734636    -0.92100
O1248       O  0.15093044  0.99276740  0.35007914    -0.92400
O1249       O  0.16769791  0.55083405  0.33406542    -0.91200
C1250       C  0.10883004  0.00092114  0.24621733     1.17800
H1251       H  0.19260131  0.93940403  0.32679786     0.33800
H1252       H  0.21566480  0.54926293  0.29057509     0.44600
H1253       H  0.16867590  0.96988908  0.20769170     0.38200
H1254       H  0.28874360  0.95088372  0.24914627     0.34600
H1255       H  0.21486604  0.53832948  0.37579870     0.26400
H1256       H  0.32182759  0.52599532  0.23947591     0.32400
H1257       H  0.27479482  0.98593200  0.17755709     0.38300
H1258       H  0.13587603  0.98921265  0.33416161     0.32700
H1259       H  0.11709344  0.92078571  0.28951020     0.31600
H1260       H  0.12813212  0.91353783  0.23396081     0.33300
H1261       H  0.19099020  0.92375863  0.18001743     0.32300
H1262       H  0.15434708  0.55401984  0.31592521     0.36300
H1263       H  0.14204776  0.57170153  0.21335203     0.29000
H1264       H  0.30075662  0.88681977  0.31551811     0.33200
H1265       H  0.27276818  0.90518538  0.18095854     0.36100
H1266       H  0.13885273  0.92403216  0.31713295     0.28700
H1267       H  0.13752700  0.57499294  0.24791716     0.41600
H1268       H  0.27517196  0.55247900  0.31467809     0.31600
H1269       H  0.24721483  0.52319713  0.36407347     0.39200
H1270       H  0.20974634  0.89972833  0.20117870     0.31100
H1271       H  0.31396923  0.49730510  0.22318577     0.31200
H1272       H  0.30407364  0.89065002  0.28097306     0.31400
C1273       C  0.13116370  0.70742057  0.25298468    -0.16000
C1274       C  0.10820698  0.69897090  0.23595287    -0.31200
H1275       H  0.12601708  0.71750873  0.27462539     0.13000
H1276       H  0.11400266  0.68650320  0.21559934     0.13600
C1277       C  0.21341496  0.71019547  0.17627870    -0.16000
C1278       C  0.20176550  0.69411709  0.15480787    -0.31200
H1279       H  0.22726664  0.72746734  0.17067657     0.13000
H1280       H  0.18711494  0.67763434  0.16092203     0.13600
C1281       C  0.23472314  0.61290824  0.24603355    -0.16000
C1282       C  0.21272406  0.63471136  0.25640357    -0.31200
H1283       H  0.25478097  0.61887240  0.23464336     0.13000
H1284       H  0.19414284  0.62883256  0.27004468     0.13600
C1285       C  0.17114310  0.59555042  0.04400399    -0.16000
C1286       C  0.18402392  0.57136478  0.02872289    -0.31200
H1287       H  0.15466530  0.59317516  0.06145402     0.13000
H1288       H  0.20039172  0.57379274  0.01119747     0.13600
C1289       C  0.19052637  0.49389858  0.10941066    -0.16000
C1290       C  0.18669593  0.51274399  0.13301101    -0.31200
H1291       H  0.19825094  0.47012127  0.11289316     0.13000
H1292       H  0.17678025  0.53605292  0.12944547     0.13600
C1293       C  0.11137166  0.49473888  0.04023299    -0.16000
C1294       C  0.09275667  0.00408815  0.01756333    -0.31200
H1295       H  0.10530429  0.48145729  0.05876023     0.13000
H1296       H  0.10014597  0.01368246  0.99721367     0.13600
C1297       C  0.48253655  0.70514355  0.10909456    -0.16000
C1298       C  0.49103452  0.68790959  0.13327015    -0.31200
H1299       H  0.97338891  0.73071132  0.10983027     0.13000
H1300       H  0.50101904  0.66454975  0.13037343     0.13600
C1301       C  0.06924845  0.69469946  0.00973270    -0.16000
C1302       C  0.05052869  0.70117536  0.03323696    -0.31200
H1303       H  0.06076487  0.68426396  0.99006225     0.13000
H1304       H  0.05820847  0.71404547  0.05163479     0.13600
C1305       C  0.47645963  0.62422159  0.03335615    -0.16000
C1306       C  0.49032452  0.60021415  0.04872420    -0.31200
H1307       H  0.95618781  0.62451507  0.01328488     0.13000
H1308       H  0.50802533  0.60266255  0.06556776     0.13600
C1309       C  0.47436686  0.57205758  0.25215146    -0.16000
C1310       C  0.45348035  0.59401859  0.23978456    -0.31200
H1311       H  0.49181576  0.57789314  0.26781162     0.13000
H1312       H  0.43436124  0.58828834  0.22613541     0.13600
C1313       C  0.05361476  0.99849075  0.25599589    -0.16000
C1314       C  0.07540917  0.00951575  0.24041865    -0.31200
H1315       H  0.06107661  0.49026821  0.27673490     0.13000
H1316       H  0.06849997  0.02386496  0.22129646     0.13600
C1317       C  0.45165280  0.99719500  0.15672363    -0.16000
C1318       C  0.47854405  0.99129370  0.17199034    -0.31200
H1319       H  0.43140119  0.50273185  0.17101955     0.13000
H1320       H  0.49970794  0.98301911  0.16006537     0.13600
C1321       C  0.22325599  0.87556900  0.50297420    -0.16000
C1322       C  0.23637010  0.85153818  0.48755217    -0.31200
H1323       H  0.20672689  0.87296369  0.52030620     0.13000
H1324       H  0.25293216  0.85399828  0.47021043     0.13600
C1325       C  0.30045972  0.95025350  0.00118415    -0.16000
C1326       C  0.32059113  0.94207088  0.02369161    -0.31200
H1327       H  0.30694909  0.96413108  0.98331162     0.13000
H1328       H  0.31318145  0.93065521  0.04295810     0.13600
C1329       C  0.22755389  0.95621210  0.42708376    -0.16000
C1330       C  0.23795901  0.93895547  0.40366386    -0.31200
H1331       H  0.21888924  0.97987376  0.42396743     0.13000
H1332       H  0.24865549  0.91587378  0.40738590     0.13600
C1333       C  0.44128275  0.74339221  0.42651201    -0.16000
C1334       C  0.43650996  0.76230973  0.40297822    -0.31200
H1335       H  0.44891366  0.71962660  0.42302723     0.13000
H1336       H  0.42673240  0.78562766  0.40646948     0.13600
C1337       C  0.36219734  0.74222773  0.00383819    -0.16000
C1338       C  0.34441167  0.74786675  0.02803977    -0.31200
H1339       H  0.35386492  0.73033815  0.98503633     0.13000
H1340       H  0.35510681  0.75630119  0.53839571     0.13600
C1341       C  0.43481377  0.82080473  0.50702048    -0.16000
C1342       C  0.42182670  0.84471677  0.49104617    -0.31200
H1343       H  0.45059771  0.82357121  0.52549766     0.13000
H1344       H  0.40598065  0.84201900  0.47259430     0.13600
C1345       C  0.30463306  0.74637957  0.28903453    -0.16000
C1346       C  0.32845821  0.75529862  0.30423642    -0.31200
H1347       H  0.30839907  0.73550365  0.26756064     0.13000
H1348       H  0.32387071  0.76862483  0.32427455     0.13600
C1349       C  0.22687216  0.74563218  0.36962288    -0.16000
C1350       C  0.19913570  0.75027157  0.38317864    -0.31200
H1351       H  0.24768256  0.73829258  0.38305001     0.13000
H1352       H  0.17771185  0.75629873  0.37030335     0.13600
C1353       C  0.22672314  0.82199711  0.28880637    -0.16000
C1354       C  0.20513685  0.84479555  0.29778334    -0.31200
H1355       H  0.24518228  0.82661333  0.27430452     0.13000
H1356       H  0.18521993  0.83999470  0.31019658     0.13600
C1357       C  0.45848904  0.88363803  0.28146776    -0.16000
C1358       C  0.48158150  0.86140790  0.28929442    -0.31200
H1359       H  0.43822711  0.87855065  0.26910429     0.13000
H1360       H  0.50285579  0.86700230  0.29945841     0.13600
C1361       C  0.46839813  0.95514608  0.36420528    -0.16000
C1362       C  0.45807252  0.93828308  0.38530906    -0.31200
H1363       H  0.48207000  0.97261876  0.37013831     0.13000
H1364       H  0.44341327  0.92175597  0.37878556     0.13600
C1365       C  0.35707377  0.95283680  0.30751536    -0.16000
C1366       C  0.37989599  0.95954676  0.29004457    -0.31200
H1367       H  0.36299937  0.94052096  0.32808547     0.13000
H1368       H  0.37424215  0.96912241  0.26812163     0.13600
C1369       C  0.46321718  0.95067437  0.83189364     0.86900
C1370       C  0.47803687  0.96877735  0.80864222    -0.53400
C1371       C  0.46821585  0.96475071  0.77985623     0.09800
C1372       C  0.44477804  0.94159743  0.77759078     0.20800
C1373       C  0.42804916  0.95944968  0.82659833    -0.54100
C1374       C  0.41801546  0.95453445  0.79837921     0.09900
C1375       C  0.47078235  0.91808305  0.82184557    -0.53600
C1376       C  0.46078239  0.91263518  0.79377305     0.10500
H1377       H  0.49421368  0.98387003  0.81487483     0.15000
H1378       H  0.43626258  0.93726724  0.75487778     0.00700
H1379       H  0.41252318  0.96910464  0.84392470     0.15300
H1380       H  0.48223262  0.90044064  0.83640465     0.15100
C1381       C  0.21162968  0.74700548  0.83266430     0.86900
C1382       C  0.19743480  0.72825559  0.80920989    -0.53400
C1383       C  0.20796008  0.73109870  0.78093940     0.09800
C1384       C  0.23161361  0.75376331  0.77913032     0.20800
C1385       C  0.24707797  0.73813431  0.82971483    -0.54100
C1386       C  0.25762781  0.74178506  0.80169216     0.09900
C1387       C  0.20471534  0.77921702  0.82128751    -0.53600
C1388       C  0.21567721  0.78320980  0.79361204     0.10500
H1389       H  0.18055524  0.71398352  0.81505698     0.15000
H1390       H  0.24062889  0.75709755  0.75666395     0.00700
H1391       H  0.26235606  0.72969165  0.84817475     0.15300
H1392       H  0.19364723  0.79771700  0.83473612     0.15100
C1393       C  0.43041138  0.78692256  0.00092718     0.86900
C1394       C  0.39755424  0.78084061  0.00798870    -0.53400
C1395       C  0.39284167  0.75235222  0.00117127     0.09800
C1396       C  0.42151803  0.73276350  0.98788785     0.20800
C1397       C  0.45104473  0.76568758  0.51711680    -0.54100
C1398       C  0.44824648  0.73695119  0.50947965     0.09900
C1399       C  0.43521670  0.77899142  0.96808501    -0.53600
C1400       C  0.43012213  0.75082581  0.96083884     0.10500
H1401       H  0.37818701  0.79887019  0.50915083     0.15000
H1402       H  0.41695229  0.71006155  0.98171435     0.00700
H1403       H  0.46581787  0.77149832  0.53517390     0.15300
H1404       H  0.44225144  0.79446901  0.95198217     0.15100
C1405       C  0.23050611  0.90764319  0.99943449     0.86900
C1406       C  0.26307409  0.91168245  0.50301667    -0.53400
C1407       C  0.26918092  0.94114874  0.99975805     0.09800
C1408       C  0.24074322  0.96108621  0.98586106     0.20800
C1409       C  0.20924564  0.93049848  0.51478640    -0.54100
C1410       C  0.21409422  0.95914142  0.50933702     0.09900
C1411       C  0.22587311  0.91497962  0.96629207    -0.53600
C1412       C  0.23187646  0.94270742  0.95894903     0.10500
H1413       H  0.28143222  0.89411420  0.51057944     0.15000
H1414       H  0.24596353  0.98343826  0.97943994     0.00700
H1415       H  0.19286394  0.92469821  0.53086318     0.15300
H1416       H  0.21921900  0.89925368  0.94994371     0.15100
C1417       C  0.48340357  0.99661463  0.70215978     0.86900
C1418       C  0.01844832  0.99392473  0.71131006    -0.53400
C1419       C  0.02528977  0.00109476  0.73979058     0.09800
C1420       C  0.49114999  0.50857949  0.75974178     0.20800
C1421       C  0.47091691  0.97627818  0.72489840    -0.54100
C1422       C  0.47739054  0.98280387  0.75401799     0.09900
C1423       C  0.46716055  0.52847542  0.71313952    -0.53600
C1424       C  0.47350528  0.53543766  0.74186785     0.10500
H1425       H  0.03629995  0.98788141  0.69481126     0.15000
H1426       H  0.49700829  0.51475679  0.78274439     0.00700
H1427       H  0.45894670  0.95792583  0.71811735     0.15300
H1428       H  0.45675102  0.54504022  0.69697732     0.15100
C1429       C  0.48022468  0.65787971  0.53886987     0.86900
C1430       C  0.46070615  0.68196801  0.51983647    -0.53400
C1431       C  0.46502019  0.71055689  0.52642019     0.09800
C1432       C  0.99010273  0.71098565  0.55276726     0.20800
C1433       C  0.01429564  0.66187189  0.53546415    -0.54100
C1434       C  0.01952042  0.69019949  0.54247447     0.09900
C1435       C  0.47215388  0.66661058  0.57099774    -0.53600
C1436       C  0.47721898  0.69471641  0.57861519     0.10500
H1437       H  0.44485853  0.67633668  0.50262727     0.15000
H1438       H  0.99498284  0.73354591  0.55907105     0.00700
H1439       H  0.03257846  0.64430478  0.52831786     0.15300
H1440       H  0.46317582  0.65161038  0.58637582     0.15100
C1441       C  0.17808285  0.53969264  0.53905502     0.86900
C1442       C  0.19709849  0.51578285  0.51984812    -0.53400
C1443       C  0.19778342  0.98543564  0.52624624     0.07000
C1444       C  0.17444767  0.98364613  0.55194496     0.20800
C1445       C  0.14431927  0.53399600  0.53531712    -0.54100
C1446       C  0.14029140  0.50543448  0.54253873     0.09900
C1447       C  0.18751573  0.53090049  0.57116031    -0.53600
C1448       C  0.18310748  0.50263158  0.57872791     0.10500
H1449       H  0.21186026  0.52162180  0.50230662     0.15000
H1450       H  0.17042026  0.96088624  0.55829912     0.00700
H1451       H  0.12528175  0.55114247  0.52830007     0.15300
H1452       H  0.19682948  0.54600567  0.58653744     0.15100
C1453       C  0.18800821  0.69978011  0.70367328     0.86900
C1454       C  0.15361425  0.70464819  0.71201999    -0.53400
C1455       C  0.14818977  0.69821892  0.74082783     0.09800
C1456       C  0.17817463  0.68719948  0.75881339     0.20800
C1457       C  0.20345003  0.71907388  0.72601874    -0.54100
C1458       C  0.19805597  0.71299974  0.75528999     0.09900
C1459       C  0.20019154  0.66725990  0.71212497    -0.53600
C1460       C  0.19516812  0.66028496  0.74090662     0.10500
H1461       H  0.13506871  0.71362598  0.69652833     0.15000
H1462       H  0.17345951  0.68093312  0.78188256     0.00700
H1463       H  0.21602942  0.73675988  0.71898204     0.15300
H1464       H  0.21009363  0.65066028  0.69605412     0.15100
Zr1465     Zr  0.42039469  0.94711691  0.98335570     2.17500
O1466       O  0.37828491  0.95962134  0.94678333    -0.50900
O1467       O  0.41926553  0.89357188  0.98238237    -0.74100
O1468       O  0.43852677  0.93923803  0.93281838    -0.80900
O1469       O  0.36205811  0.95848532  0.54524982    -0.82700
O1470       O  0.48552093  0.95518577  0.92829762    -0.78300
O1471       O  0.36483999  0.94890304  0.49561650    -0.89900
O1472       O  0.45165348  0.87607730  0.51669508    -0.75900
O1473       O  0.47439260  0.92703362  0.98832015    -0.85400
O1474       O  0.42478300  0.93371638  0.53174847    -0.85100
O1475       O  0.44807334  0.98780341  0.97198225    -0.71800
O1476       O  0.40179173  0.99394713  0.51060756    -0.84000
Zr1477     Zr  0.49211684  0.99652953  0.55710875     2.26400
Zr1478     Zr  0.50227067  0.96779843  0.97834091     2.06300
Zr1479     Zr  0.40949865  0.97722470  0.56088288     2.10000
Zr1480     Zr  0.47842984  0.91413968  0.53793519     1.78800
O1481       O  0.36451916  0.51832024  0.57354345    -0.92800
O1482       O  0.01988142  0.87860278  0.51751890    -0.40600
O1483       O  0.46337038  0.95689436  0.56840243    -0.77200
O1484       O  0.50843974  0.95295688  0.52736787    -0.95900
O1485       O  0.48122000  0.51421507  0.50972321    -0.89200
O1486       O  0.43420874  0.51789381  0.55342567    -0.92000
C1487       C  0.43235327  0.87150952  0.99825589     1.01700
C1488       C  0.35052752  0.95089076  0.52043320     1.14600
C1489       C  0.46158734  0.94501005  0.91753657     1.05400
O1490       O  0.04297109  0.93174661  0.96607999    -0.94200
O1491       O  0.04837009  0.99023792  0.99359401    -0.89900
O1492       O  0.04714957  0.99426889  0.54338306    -0.83100
C1493       C  0.06114338  0.99266073  0.51834649     1.12100
O1494       O  0.38762626  0.54757858  0.97041993    -0.96200
Zr1495     Zr  0.42767143  0.53318545  0.50265313     1.88900
O1496       O  0.48790265  0.55173191  0.55914583    -0.72800
O1497       O  0.01263122  0.50554584  0.94141744    -0.52100
O1498       O  0.44951928  0.55571058  0.96082017    -0.96800
O1499       O  0.38651422  0.57023791  0.52272427    -0.54000
O1500       O  0.45526086  0.57167374  0.52197166    -0.73300
C1501       C  0.47559925  0.57355926  0.54258336     0.99000
O1502       O  0.02943593  0.99638704  0.60079122    -0.62200
O1503       O  0.39367354  0.94572386  0.60009146    -0.57000
O1504       O  0.47023785  0.49638312  0.61102582    -0.93600
O1505       O  0.42390529  0.98948952  0.61081035    -0.92100
O1506       O  0.46225322  0.88727341  0.58048365    -0.92400
O1507       O  0.01990657  0.89648007  0.57606238    -0.91200
C1508       C  0.44988798  0.99341849  0.62276261     1.17800
H1509       H  0.41174549  0.91888670  0.53635754     0.33800
H1510       H  0.03079374  0.94430233  0.53271270     0.44600
H1511       H  0.42832242  0.53435915  0.56690350     0.38200
H1512       H  0.44358653  0.99442001  0.95174166     0.34600
H1513       H  0.01725419  0.85881784  0.52574752     0.26400
H1514       H  0.02976431  0.99274417  0.92794725     0.32400
H1515       H  0.47135110  0.55804257  0.96572116     0.38300
H1516       H  0.43964646  0.88718895  0.57728795     0.32700
H1517       H  0.37176114  0.95417382  0.60421746     0.31600
H1518       H  0.35632479  0.51329007  0.59301192     0.33300
H1519       H  0.39028763  0.58957160  0.51423910     0.32300
H1520       H  0.02599816  0.91506156  0.58451138     0.36300
H1521       H  0.04504142  0.97815138  0.59851371     0.29000
H1522       H  0.37869066  0.94167131  0.93402210     0.33200
H1523       H  0.38929865  0.56854390  0.96507090     0.36100
H1524       H  0.39246518  0.92614480  0.59055696     0.28700
H1525       H  0.04095232  0.01337618  0.59734995     0.41600
H1526       H  0.03364381  0.91893910  0.95164890     0.31600
H1527       H  0.01690742  0.87851071  0.99252596     0.39200
H1528       H  0.39163749  0.57177934  0.54414059     0.31100
H1529       H  0.49637594  0.51030273  0.93099820     0.31200
H1530       H  0.38498840  0.97508643  0.93381881     0.31400
Zr1531     Zr  0.48742843  0.68073916  0.73948265     2.17500
O1532       O  0.03166110  0.64070006  0.73588688    -0.50900
O1533       O  0.98442541  0.68050991  0.68621670    -0.74100
O1534       O  0.47170902  0.63093737  0.74142038    -0.80900
O1535       O  0.04949025  0.73244260  0.75851651    -0.82700
O1536       O  0.42062244  0.63640402  0.75364696    -0.78300
O1537       O  0.04149803  0.68856304  0.73680995    -0.89900
O1538       O  0.45193163  0.72301997  0.66874946    -0.75900
O1539       O  0.43415561  0.69539322  0.72597901    -0.85400
O1540       O  0.48292196  0.73217217  0.72539704    -0.85100
O1541       O  0.46042003  0.67267534  0.78425231    -0.71800
O1542       O  0.00299342  0.70752481  0.78394834    -0.84000
Zr1543     Zr  0.41625713  0.76576190  0.79970783     2.26400
Zr1544     Zr  0.40671675  0.68805526  0.77053853     2.06300
Zr1545     Zr  0.49829076  0.75907028  0.76795627     2.10000
Zr1546     Zr  0.42934686  0.74721189  0.71316236     1.78800
O1547       O  0.03326855  0.76954727  0.81081657    -0.92800
O1548       O  0.38474824  0.73610510  0.68386652    -0.40600
O1549       O  0.44431889  0.77396814  0.75567916    -0.77200
O1550       O  0.40010889  0.73995552  0.75659780    -0.95900
O1551       O  0.42196990  0.71437132  0.81337062    -0.89200
O1552       O  0.47006618  0.75192097  0.81209045    -0.92000
C1553       C  0.47014156  0.69838011  0.66433588     1.01700
C1554       C  0.05893138  0.70758491  0.74510249     1.14600
C1555       C  0.44628949  0.62046029  0.74597294     1.05400
O1556       O  0.36645076  0.67700171  0.73563943    -0.94200
O1557       O  0.35633310  0.71208600  0.78778392    -0.89900
O1558       O  0.36426228  0.75495346  0.81159272    -0.83100
C1559       C  0.34700574  0.73556244  0.80326507     1.12100
O1560       O  0.01386880  0.65830827  0.83586230    -0.96200
Zr1561     Zr  0.47556629  0.70051054  0.82597560     1.88900
O1562       O  0.41908873  0.76613402  0.85415123    -0.72800
O1563       O  0.39155459  0.65605828  0.80952288    -0.52100
O1564       O  0.45699948  0.65956267  0.85212223    -0.96800
O1565       O  0.01543550  0.71273170  0.85816921    -0.54000
O1566       O  0.45072063  0.72410648  0.86984886    -0.73300
C1567       C  0.43197891  0.74837496  0.87469733     0.99000
O1568       O  0.37674484  0.80997944  0.79237987    -0.62200
O1569       O  0.02054922  0.78999632  0.73476855    -0.57000
O1570       O  0.43508740  0.81402130  0.80411474    -0.93600
O1571       O  0.48016505  0.81259101  0.77854820    -0.92100
O1572       O  0.45056388  0.78713173  0.68789837    -0.92400
O1573       O  0.38865222  0.78946367  0.70270373    -0.91200
C1574       C  0.45719832  0.82657930  0.79336088     1.17800
H1575       H  0.99771861  0.73539458  0.71112863     0.33800
H1576       H  0.37843023  0.74714496  0.75196980     0.44600
H1577       H  0.47625326  0.76413723  0.82813037     0.38200
H1578       H  0.46406789  0.65199376  0.79051734     0.34600
H1579       H  0.38970577  0.74025784  0.66301488     0.26400
H1580       H  0.37908787  0.64243190  0.79913016     0.32400
H1581       H  0.45996744  0.66375870  0.87350906     0.38300
H1582       H  0.44666143  0.78386118  0.66647326     0.32700
H1583       H  0.03994356  0.79439760  0.74459063     0.31600
H1584       H  0.03429514  0.79125361  0.80938844     0.33300
H1585       H  0.01202511  0.70417465  0.87788974     0.32300
H1586       H  0.38007477  0.79567053  0.72239211     0.36300
H1587       H  0.38420275  0.82092974  0.77553514     0.29000
H1588       H  0.02767053  0.63028511  0.71712723     0.33200
H1589       H  0.01091735  0.65167616  0.85645404     0.36100
H1590       H  0.02780814  0.77623310  0.71831954     0.28700
H1591       H  0.35808769  0.80260525  0.78399464     0.41600
H1592       H  0.35581060  0.69684536  0.72883063     0.31600
H1593       H  0.38611359  0.71403970  0.68481354     0.39200
H1594       H  0.01105116  0.73467180  0.86121622     0.31100
H1595       H  0.41110401  0.64305200  0.81552357     0.31200
H1596       H  0.02969153  0.62611741  0.75191077     0.31400
Zr1597     Zr  0.24407554  0.74730968  0.98589022     2.17500
O1598       O  0.28605299  0.73553844  0.95036095    -0.50900
O1599       O  0.24612743  0.80043763  0.98584534    -0.74100
O1600       O  0.22741733  0.75921956  0.93544684    -0.80900
O1601       O  0.30283479  0.73488541  0.54421076    -0.82700
O1602       O  0.18264384  0.74021781  0.92577728    -0.78300
O1603       O  0.29791936  0.74241337  0.49428987    -0.89900
O1604       O  0.20758873  0.82016937  0.51336572    -0.75900
O1605       O  0.18993362  0.76667829  0.98677626    -0.85400
O1606       O  0.23811974  0.76250684  0.53145914    -0.85100
O1607       O  0.21817648  0.70616052  0.97137349    -0.71800
O1608       O  0.26012770  0.70194798  0.51119100    -0.84000
Zr1609     Zr  0.17173409  0.69996361  0.55838906     2.26400
Zr1610     Zr  0.16357431  0.72540383  0.97371863     2.06300
Zr1611     Zr  0.25479953  0.71925125  0.56121109     2.10000
Zr1612     Zr  0.18445946  0.78192007  0.53766188     1.78800
O1613       O  0.29593775  0.67768560  0.57245794    -0.92800
O1614       O  0.13967903  0.81510754  0.51716344    -0.40600
O1615       O  0.20125749  0.73962963  0.56866039    -0.77200
O1616       O  0.15402443  0.74309329  0.52796064    -0.95900
O1617       O  0.17643812  0.68300725  0.50833562    -0.89200
O1618       O  0.22521421  0.67924805  0.55232668    -0.92000
C1619       C  0.23005108  0.82294902  0.99838063     1.01700
C1620       C  0.31366048  0.74059738  0.51881983     1.14600
C1621       C  0.20605821  0.75262183  0.91784763     1.05400
O1622       O  0.12297569  0.76412192  0.95455621    -0.94200
O1623       O  0.11371516  0.70934145  0.98652368    -0.89900
O1624       O  0.11735266  0.69964646  0.54354476    -0.83100
C1625       C  0.10211803  0.70087905  0.51869700     1.12100
O1626       O  0.28017977  0.65198607  0.97612746    -0.96200
Zr1627     Zr  0.22960474  0.66289463  0.50200537     1.88900
O1628       O  0.17045352  0.64630737  0.55937633    -0.72800
O1629       O  0.15280745  0.68811398  0.93732516    -0.52100
O1630       O  0.22169697  0.63827282  0.95842472    -0.96800
O1631       O  0.26943463  0.62542820  0.52468601    -0.54000
O1632       O  0.20022385  0.62628071  0.52123283    -0.73300
C1633       C  0.18127597  0.62445828  0.54241763     0.99000
O1634       O  0.13619908  0.70808697  0.60007788    -0.62200
O1635       O  0.27188393  0.75301646  0.59835506    -0.57000
O1636       O  0.19202013  0.69904699  0.60940110    -0.93600
O1637       O  0.24274818  0.70645473  0.61132519    -0.92100
O1638       O  0.20112303  0.81329713  0.57710079    -0.92400
O1639       O  0.14669719  0.79494229  0.57680283    -0.91200
C1640       C  0.21756551  0.70163708  0.62353140     1.17800
H1641       H  0.25121604  0.77759251  0.53559544     0.33800
H1642       H  0.13248826  0.75082282  0.53173627     0.44600
H1643       H  0.23126961  0.66299940  0.56616092     0.38200
H1644       H  0.22384350  0.69988959  0.95139531     0.34600
H1645       H  0.14271738  0.83537986  0.52389633     0.26400
H1646       H  0.13785041  0.69933598  0.92299959     0.32400
H1647       H  0.19990090  0.63455427  0.96017233     0.38300
H1648       H  0.22204178  0.80310785  0.58330593     0.32700
H1649       H  0.29223187  0.74258150  0.60587158     0.31600
H1650       H  0.30590569  0.68371620  0.59101669     0.33300
H1651       H  0.26779137  0.60673610  0.51360701     0.32300
H1652       H  0.15111252  0.77833800  0.59136255     0.36300
H1653       H  0.12114755  0.72613156  0.59479979     0.29000
H1654       H  0.28768928  0.75464908  0.94014392     0.33200
H1655       H  0.28234825  0.63018352  0.97221680     0.36100
H1656       H  0.27708263  0.77033558  0.58702946     0.28700
H1657       H  0.12392515  0.69129478  0.59957970     0.41600
H1658       H  0.11356477  0.77422117  0.97250613     0.31600
H1659       H  0.14515910  0.81895295  0.99169256     0.39200
H1660       H  0.26179859  0.62167459  0.54472893     0.31100
H1661       H  0.17232543  0.68311293  0.92609282     0.31200
H1662       H  0.27819972  0.72272086  0.93496095     0.31400
Zr1663     Zr  0.26047286  0.93092522  0.79924385     2.17500
O1664       O  0.30123901  0.88740055  0.79694756    -0.50900
O1665       O  0.25570608  0.92922158  0.85379228    -0.74100
O1666       O  0.31232768  0.94364884  0.80885047    -0.80900
O1667       O  0.20163559  0.87923387  0.77702311    -0.82700
O1668       O  0.31640958  0.98787495  0.78605512    -0.78300
O1669       O  0.24715446  0.88045361  0.80248894    -0.89900
O1670       O  0.21897314  0.96758428  0.86820187    -0.75900
O1671       O  0.25094668  0.98228381  0.81342588    -0.85400
O1672       O  0.20667164  0.94087211  0.81023323    -0.85100
O1673       O  0.27319682  0.95852251  0.75631326    -0.71800
O1674       O  0.23405378  0.92110036  0.75361290    -0.84000
Zr1675     Zr  0.18132244  0.51653433  0.73984310     2.26400
Zr1676     Zr  0.26399000  0.50534727  0.76973538     2.06300
Zr1677     Zr  0.18025402  0.93118811  0.76521790     2.10000
Zr1678     Zr  0.19675899  0.99232085  0.82401389     1.78800
O1679       O  0.16363661  0.89744182  0.72792514    -0.92800
O1680       O  0.21788113  0.53402346  0.85535559    -0.40600
O1681       O  0.16852663  0.98260881  0.78011593    -0.77200
O1682       O  0.21159495  0.52281802  0.78407969    -0.95900
O1683       O  0.23355310  0.49951425  0.72588750    -0.89200
O1684       O  0.19040617  0.96119074  0.72366804    -0.92000
C1685       C  0.23940029  0.94470662  0.87373890     1.01700
C1686       C  0.22561550  0.86661163  0.79188398     1.14600
C1687       C  0.32799341  0.96398166  0.80038494     1.05400
O1688       O  0.28660602  0.53638401  0.80590354    -0.94200
O1689       O  0.24978012  0.55841286  0.75456878    -0.89900
O1690       O  0.19828866  0.56544087  0.74162737    -0.83100
C1691       C  0.22416345  0.57518970  0.74665171     1.12100
O1692       O  0.28939083  0.91431196  0.69996874    -0.96200
Zr1693     Zr  0.24412122  0.95104010  0.71188897     1.88900
O1694       O  0.18325591  0.51595995  0.68545567    -0.72800
O1695       O  0.29977121  0.51234336  0.73012531    -0.52100
O1696       O  0.28332432  0.97378156  0.68565488    -0.96800
O1697       O  0.23082702  0.90756384  0.68517221    -0.54000
O1698       O  0.21656802  0.97311701  0.66788033    -0.73300
C1699       C  0.19372024  0.49796226  0.66451916     0.99000
O1700       O  0.14827642  0.56495307  0.73336765    -0.62200
O1701       O  0.14526215  0.91672698  0.80246096    -0.57000
O1702       O  0.12621140  0.51276666  0.73699435    -0.93600
O1703       O  0.12887752  0.95210769  0.74789381    -0.92100
O1704       O  0.15397696  0.97588956  0.85061388    -0.92400
O1705       O  0.15824514  0.54045390  0.83557423    -0.91200
C1706       C  0.11406158  0.97867499  0.74488091     1.17800
H1707       H  0.20137022  0.92804761  0.82593895     0.33800
H1708       H  0.20931667  0.54340455  0.79055025     0.44600
H1709       H  0.17715708  0.95748063  0.70700469     0.38200
H1710       H  0.29484672  0.95262884  0.75153433     0.34600
H1711       H  0.20911219  0.53259318  0.87540126     0.26400
H1712       H  0.31497838  0.52396543  0.73943215     0.32400
H1713       H  0.27824592  0.97178853  0.66426693     0.38300
H1714       H  0.15532409  0.98420598  0.87090043     0.32700
H1715       H  0.13411223  0.93595240  0.80999892     0.31600
H1716       H  0.14869758  0.88667152  0.73829045     0.33300
H1717       H  0.23427135  0.91167788  0.66396599     0.32300
H1718       H  0.15184462  0.54865984  0.81562777     0.36300
H1719       H  0.13557113  0.56316055  0.71513620     0.29000
H1720       H  0.31216618  0.88646118  0.81651540     0.33200
H1721       H  0.29151320  0.91525862  0.67811555     0.36100
H1722       H  0.12923722  0.90790901  0.79096702     0.28700
H1723       H  0.13335067  0.56671341  0.74991982     0.41600
H1724       H  0.26847389  0.54750287  0.81624085     0.31600
H1725       H  0.24027109  0.52596609  0.85794861     0.39200
H1726       H  0.20792450  0.90914311  0.68672185     0.31100
H1727       H  0.31177572  0.49220296  0.72676072     0.31200
H1728       H  0.31653980  0.89264994  0.78253027     0.31400
C1729       C  0.11636769  0.70394786  0.75335737    -0.16000
C1730       C  0.09157731  0.70038645  0.73618195    -0.31200
H1731       H  0.11337726  0.71108573  0.77633054     0.13000
H1732       H  0.09531345  0.69016611  0.71438664     0.13600
C1733       C  0.19119041  0.70622402  0.67108819    -0.16000
C1734       C  0.21781393  0.69939708  0.65624642    -0.31200
H1735       H  0.17004093  0.71457383  0.65850091     0.13000
H1736       H  0.23958663  0.69192988  0.66815573     0.13600
C1737       C  0.22407999  0.60786161  0.74247697    -0.16000
C1738       C  0.20004797  0.62850787  0.75141453    -0.31200
H1739       H  0.24326678  0.61497208  0.73058566     0.13000
H1740       H  0.18218611  0.62154317  0.76527974     0.13600
C1741       C  0.17175005  0.59496948  0.54778698    -0.16000
C1742       C  0.18336637  0.57093594  0.53150921    -0.31200
H1743       H  0.15640661  0.59247080  0.56616053     0.13000
H1744       H  0.19888775  0.57353075  0.51330556     0.13600
C1745       C  0.18909492  0.49033387  0.60945277    -0.16000
C1746       C  0.18615824  0.50832810  0.63362397    -0.31200
H1747       H  0.19526611  0.46626013  0.61216979     0.13000
H1748       H  0.17745226  0.53202330  0.63082145     0.13600
C1749       C  0.10935782  0.49537352  0.54238209    -0.16000
C1750       C  0.09340459  0.99945480  0.51783304    -0.31200
H1751       H  0.10360373  0.48191738  0.56090314     0.13000
H1752       H  0.10111545  0.00918441  0.49769442     0.13600
C1753       C  0.47231397  0.70673895  0.60938847    -0.16000
C1754       C  0.47670729  0.68847759  0.63338607    -0.31200
H1755       H  0.96608328  0.73005976  0.61260882     0.13000
H1756       H  0.48603128  0.66497159  0.63036526     0.13600
C1757       C  0.07007304  0.69330941  0.51873651    -0.16000
C1758       C  0.05088573  0.69955067  0.54187185    -0.31200
H1759       H  0.06182379  0.68272867  0.49902987     0.13000
H1760       H  0.05785055  0.71261152  0.56043754     0.13600
C1761       C  0.47407502  0.62688358  0.53120591    -0.16000
C1762       C  0.48548089  0.60291692  0.54782907    -0.31200
H1763       H  0.95776092  0.62383294  0.51373653     0.13000
H1764       H  0.50133937  0.60530487  0.56634951     0.13600
C1765       C  0.46955046  0.56715239  0.75212698    -0.16000
C1766       C  0.44644766  0.58802619  0.74145017    -0.31200
H1767       H  0.48708981  0.57376279  0.76722986     0.13000
H1768       H  0.42741299  0.58120323  0.72843860     0.13600
C1769       C  0.05806945  0.00099679  0.74994676    -0.16000
C1770       C  0.08054947  0.98036467  0.73889599    -0.31200
H1771       H  0.05751677  0.48266669  0.77507621     0.13000
H1772       H  0.07395322  0.96221139  0.72547083     0.13600
C1773       C  0.45127216  0.99526711  0.65544431    -0.16000
C1774       C  0.47878521  0.98966699  0.66979780    -0.31200
H1775       H  0.42554670  0.50344903  0.67039064     0.13000
H1776       H  0.49947964  0.98216784  0.65690112     0.13600
C1777       C  0.22410975  0.87691035  0.00681094    -0.16000
C1778       C  0.23878989  0.85253868  0.99303909    -0.31200
H1779       H  0.20606380  0.87481375  0.02279545     0.13000
H1780       H  0.25692779  0.85463275  0.97714160     0.13600
C1781       C  0.29915802  0.94948300  0.49757472    -0.16000
C1782       C  0.31885995  0.94311990  0.52071672    -0.31200
H1783       H  0.30553647  0.96262588  0.47906571     0.13000
H1784       H  0.31135918  0.93248016  0.54042860     0.13600
C1785       C  0.23181765  0.95322475  0.92773062    -0.16000
C1786       C  0.24315446  0.93504452  0.90521540    -0.31200
H1787       H  0.22267996  0.97658534  0.92338183     0.13000
H1788       H  0.25443555  0.91234417  0.90996044     0.13600
C1789       C  0.43297601  0.73922567  0.92973534    -0.16000
C1790       C  0.42555831  0.75747698  0.90598718    -0.31200
H1791       H  0.44152883  0.71559851  0.92645253     0.13000
H1792       H  0.41481563  0.78050470  0.90962651     0.13600
C1793       C  0.36397065  0.74287130  0.49418808    -0.16000
C1794       C  0.34597429  0.74706363  0.51832806    -0.31200
H1795       H  0.35637739  0.73140259  0.47476653     0.13000
H1796       H  0.35365420  0.75751766  0.04780946     0.13600
C1797       C  0.43650844  0.81789334  0.00821473    -0.16000
C1798       C  0.42279808  0.84206697  0.99306758    -0.31200
H1799       H  0.45415311  0.82023422  0.02514550     0.13000
H1800       H  0.40536256  0.83981318  0.97590522     0.13600
C1801       C  0.29095909  0.73516661  0.79358284    -0.16000
C1802       C  0.31404291  0.74091975  0.81209145    -0.31200
H1803       H  0.29642267  0.72730879  0.77116133     0.13000
H1804       H  0.30843752  0.75176965  0.83331112     0.13600
C1805       C  0.20030508  0.74337705  0.86388272    -0.16000
C1806       C  0.21060778  0.75905928  0.88634164    -0.31200
H1807       H  0.18504027  0.72696072  0.86828182     0.13000
H1808       H  0.22667910  0.77464488  0.88147513     0.13600
C1809       C  0.21634683  0.81393730  0.78189129    -0.16000
C1810       C  0.22822771  0.83428118  0.79895920    -0.31200
H1811       H  0.20656521  0.81993995  0.75996104     0.13000
H1812       H  0.24015555  0.82688198  0.81971921     0.13600
C1813       C  0.46247853  0.88101068  0.78244741    -0.16000
C1814       C  0.45623509  0.85891778  0.80084633    -0.31200
H1815       H  0.46773723  0.87619741  0.75927507     0.13000
H1816       H  0.44771573  0.86524175  0.82289344     0.13600
C1817       C  0.47232643  0.95468748  0.86421464    -0.16000
C1818       C  0.45904934  0.93983260  0.88533129    -0.31200
H1819       H  0.48806206  0.97036179  0.87025868     0.13000
H1820       H  0.44255330  0.92516446  0.87838985     0.13600
C1821       C  0.36149576  0.95912909  0.80853509    -0.16000
C1822       C  0.38445654  0.96128259  0.78912308    -0.31200
H1823       H  0.36749964  0.95047075  0.83073771     0.13000
H1824       H  0.37865740  0.96661851  0.76596501     0.13600
C1825       C  0.96097962  0.45296166  0.33322082     0.86900
C1826       C  0.97354940  0.47363299  0.31093998    -0.53400
C1827       C  0.96516633  0.46924181  0.28183150     0.09800
C1828       C  0.94495444  0.44340163  0.27834350     0.20800
C1829       C  0.92565142  0.45777161  0.32748827    -0.54100
C1830       C  0.91702489  0.45261729  0.29893793     0.09900
C1831       C  0.97268498  0.42129134  0.32239514    -0.53600
C1832       C  0.96364838  0.41546065  0.29405779     0.10500
H1833       H  0.98760736  0.49027959  0.31808437     0.15000
H1834       H  0.93750806  0.43874647  0.25535091     0.00700
H1835       H  0.90886985  0.46501097  0.34466635     0.15300
H1836       H  0.98567960  0.40435437  0.33679065     0.15100
C1837       C  0.72423800  0.25198085  0.33998290     0.86900
C1838       C  0.70746367  0.23357391  0.31785176    -0.53400
C1839       C  0.71422716  0.23787157  0.28847114     0.09800
C1840       C  0.73685985  0.26142038  0.28464935     0.20800
C1841       C  0.75867004  0.24400709  0.33245224    -0.54100
C1842       C  0.76550241  0.24910166  0.30378293     0.09900
C1843       C  0.71525588  0.28469330  0.33027711    -0.53600
C1844       C  0.72221757  0.29009468  0.30142426     0.10500
H1845       H  0.69253144  0.21797835  0.32523937     0.15000
H1846       H  0.74309350  0.26596156  0.26150239     0.00700
H1847       H  0.77637688  0.23467699  0.34861677     0.15300
H1848       H  0.70702236  0.30243894  0.34583987     0.15100
C1849       C  0.93278622  0.28824264  0.49950831     0.86900
C1850       C  0.89971542  0.28177047  0.50498504    -0.53400
C1851       C  0.89557181  0.25323553  0.49768905     0.09800
C1852       C  0.92511242  0.23390483  0.48582044     0.20800
C1853       C  0.96099479  0.26254940  0.01782927    -0.54100
C1854       C  0.95689138  0.23380407  0.01148356     0.09900
C1855       C  0.93927160  0.28033286  0.46698792    -0.53600
C1856       C  0.93468330  0.25213294  0.45940620     0.10500
H1857       H  0.88773756  0.29615274  0.01791895     0.15000
H1858       H  0.92099989  0.21116977  0.47926764     0.00700
H1859       H  0.97813257  0.26837833  0.03368293     0.15300
H1860       H  0.94666274  0.29597373  0.45125490     0.15100
C1861       C  0.72613024  0.40757813  0.50047351     0.86900
C1862       C  0.76186010  0.41536828  0.00960347    -0.53400
C1863       C  0.76442475  0.44146331  0.50089583     0.09800
C1864       C  0.73562650  0.46149494  0.48792152     0.20800
C1865       C  0.70730477  0.43358805  0.01868444    -0.54100
C1866       C  0.71195132  0.46210002  0.01223484     0.09900
C1867       C  0.72092116  0.41562909  0.46753838    -0.53600
C1868       C  0.72646821  0.44369206  0.46079093     0.10500
H1869       H  0.78016837  0.39847351  0.01849600     0.15000
H1870       H  0.74055055  0.48405893  0.48189869     0.00700
H1871       H  0.69046985  0.42820307  0.03450396     0.15300
H1872       H  0.71433427  0.40014760  0.45091366     0.15100
C1873       C  0.98394153  0.50111921  0.20522458     0.86900
C1874       C  0.51848097  0.49662866  0.21507623    -0.53400
C1875       C  0.52380192  0.50342755  0.24395643     0.09800
C1876       C  0.99200975  0.01186871  0.26105985     0.20800
C1877       C  0.96909903  0.48172460  0.22724136    -0.54100
C1878       C  0.97440980  0.48804881  0.25661882     0.09900
C1879       C  0.96997189  0.03138217  0.21355677    -0.53600
C1880       C  0.97550427  0.03858891  0.24242773     0.10500
H1881       H  0.53730774  0.48891768  0.19999267     0.15000
H1882       H  0.99701408  0.01831825  0.28419636     0.00700
H1883       H  0.95683791  0.46380516  0.21980219     0.15300
H1884       H  0.96060240  0.04792497  0.19694741     0.15100
C1885       C  0.99006321  0.15482903  0.04053481     0.86900
C1886       C  0.97055413  0.17875321  0.02123315    -0.53400
C1887       C  0.97461976  0.20744359  0.02768894     0.09800
C1888       C  0.49748674  0.20822686  0.05215437     0.20800
C1889       C  0.52243082  0.15907717  0.03561401    -0.54100
C1890       C  0.52727673  0.18759975  0.04255409     0.09900
C1891       C  0.98188358  0.16392675  0.07260337    -0.53600
C1892       C  0.98669448  0.19222994  0.07978931     0.10500
H1893       H  0.95485673  0.17294346  0.00397327     0.15000
H1894       H  0.50195109  0.23089550  0.05854424     0.00700
H1895       H  0.54101702  0.14152434  0.02909306     0.15300
H1896       H  0.97284926  0.14915993  0.08819290     0.15100
C1897       C  0.68221125  0.04191757  0.03893299     0.86900
C1898       C  0.70150685  0.01777427  0.02041304    -0.53400
C1899       C  0.69542999  0.48879980  0.02841663     0.07000
C1900       C  0.67264578  0.48749910  0.05469387     0.20800
C1901       C  0.64839194  0.03628030  0.03467515    -0.54100
C1902       C  0.64416769  0.00779231  0.04210379     0.09900
C1903       C  0.69103465  0.03366621  0.07127409    -0.53600
C1904       C  0.68618391  0.00576875  0.07926207     0.10500
H1905       H  0.71652192  0.02331335  0.00295490     0.15000
H1906       H  0.66913632  0.46484161  0.06191494     0.00700
H1907       H  0.62957724  0.05330188  0.02695417     0.15300
H1908       H  0.70024993  0.04887737  0.08662618     0.15100
C1909       C  0.69172743  0.20662046  0.21170516     0.86900
C1910       C  0.65768919  0.21059050  0.22058656    -0.53400
C1911       C  0.65311595  0.20376475  0.24937600     0.09800
C1912       C  0.68348627  0.19359671  0.26711066     0.20800
C1913       C  0.70717179  0.22617796  0.23370939    -0.54100
C1914       C  0.70278243  0.21992808  0.26318309     0.09900
C1915       C  0.70477591  0.17429346  0.21988990    -0.53600
C1916       C  0.70032460  0.16689185  0.24869079     0.10500
H1917       H  0.63848158  0.21831376  0.20529777     0.15000
H1918       H  0.67929194  0.18737626  0.29033969     0.00700
H1919       H  0.71938907  0.24390467  0.22617133     0.15300
H1920       H  0.71404871  0.15793266  0.20333711     0.15100
Zr1921     Zr  0.91574301  0.44936309  0.48309926     2.17500
O1922       O  0.87477236  0.46166887  0.44535949    -0.50900
O1923       O  0.91593537  0.39548144  0.48245222    -0.74100
O1924       O  0.93563426  0.43993159  0.43326449    -0.80900
O1925       O  0.86218544  0.45835279  0.05035746    -0.82700
O1926       O  0.98180541  0.45761019  0.42926007    -0.78300
O1927       O  0.86394935  0.44937158  0.00057546    -0.89900
O1928       O  0.95600860  0.37452099  0.01961568    -0.75900
O1929       O  0.96945932  0.42928854  0.48970913    -0.85400
O1930       O  0.92622805  0.43193644  0.03585752    -0.85100
O1931       O  0.94379105  0.48976298  0.47132571    -0.71800
O1932       O  0.90099079  0.49138888  0.01482775    -0.84000
Zr1933     Zr  0.99160153  0.49766218  0.05866890     2.26400
Zr1934     Zr  0.99772771  0.46957814  0.47947692     2.06300
Zr1935     Zr  0.91064252  0.47552646  0.06504454     2.10000
Zr1936     Zr  0.98048750  0.41421850  0.04067004     1.78800
O1937       O  0.87149448  0.01344234  0.07969410    -0.92800
O1938       O  0.52340531  0.38006779  0.01829542    -0.40600
O1939       O  0.96506386  0.45683828  0.07129725    -0.77200
O1940       O  0.00828814  0.45421168  0.02868796    -0.95900
O1941       O  0.98574683  0.01328903  0.01032431    -0.89200
O1942       O  0.94023129  0.01515705  0.05523412    -0.92000
C1943       C  0.93065348  0.37345980  0.49741759     1.01700
C1944       C  0.84990958  0.45175164  0.02554691     1.14600
C1945       C  0.95868501  0.44630916  0.41832095     1.05400
O1946       O  0.53710654  0.42998224  0.46575274    -0.94200
O1947       O  0.54460380  0.48961141  0.49577891    -0.89900
O1948       O  0.54653397  0.49429029  0.04440420    -0.83100
C1949       C  0.56040072  0.49299458  0.01935876     1.12100
O1950       O  0.89027138  0.04829983  0.46651526    -0.96200
Zr1951     Zr  0.93202929  0.03276174  0.00543210     1.88900
O1952       O  0.99565451  0.04854400  0.06100507    -0.72800
O1953       O  0.52002226  0.00201513  0.44045560    -0.52100
O1954       O  0.95208674  0.05609033  0.45868848    -0.96800
O1955       O  0.89308263  0.06805418  0.03088050    -0.54000
O1956       O  0.96282406  0.06932593  0.02424512    -0.73300
C1957       C  0.98366184  0.07065081  0.04460582     0.99000
O1958       O  0.52994303  0.49084539  0.10192423    -0.62200
O1959       O  0.89590609  0.44343822  0.10425742    -0.57000
O1960       O  0.97590516  0.99766548  0.11116711    -0.93600
O1961       O  0.92607364  0.48832798  0.11448265    -0.92100
O1962       O  0.96539485  0.38738066  0.08369994    -0.92400
O1963       O  0.52021882  0.39742591  0.07869664    -0.91200
C1964       C  0.95156137  0.49462926  0.12563512     1.17800
H1965       H  0.91392694  0.41663842  0.04110136     0.33800
H1966       H  0.53121775  0.44411406  0.03304908     0.44600
H1967       H  0.93460699  0.03112269  0.06938376     0.38200
H1968       H  0.93974224  0.49602710  0.45092200     0.34600
H1969       H  0.52320952  0.36023449  0.02760860     0.26400
H1970       H  0.52819530  0.49227504  0.43047860     0.32400
H1971       H  0.94842498  0.07785393  0.46295115     0.38300
H1972       H  0.97250598  0.36595593  0.07931668     0.32700
H1973       H  0.87484491  0.45292440  0.11021837     0.31600
H1974       H  0.85713549  0.00295070  0.09116762     0.33300
H1975       H  0.90470330  0.07738027  0.04656062     0.32300
H1976       H  0.52053641  0.41551908  0.09111034     0.36300
H1977       H  0.54393749  0.47166548  0.09887557     0.29000
H1978       H  0.87420016  0.44291144  0.43404834     0.33200
H1979       H  0.89072203  0.06981905  0.46265677     0.36100
H1980       H  0.89256746  0.42463090  0.09419683     0.28700
H1981       H  0.54317659  0.50663322  0.09911900     0.41600
H1982       H  0.54792584  0.42320981  0.48464728     0.31600
H1983       H  0.51417483  0.37957323  0.49880766     0.39200
H1984       H  0.88035557  0.05539164  0.04178506     0.31100
H1985       H  0.99910898  0.00807443  0.42821784     0.31200
H1986       H  0.88283636  0.47537300  0.43127823     0.31400
Zr1987     Zr  0.99451645  0.18289819  0.24069055     2.17500
O1988       O  0.53416797  0.13975166  0.23025499    -0.50900
O1989       O  0.48982121  0.18125388  0.18476247    -0.74100
O1990       O  0.97698394  0.13369756  0.24227584    -0.80900
O1991       O  0.55594163  0.23059333  0.25922086    -0.82700
O1992       O  0.92575734  0.14012430  0.25431940    -0.78300
O1993       O  0.54829105  0.18538021  0.24035408    -0.89900
O1994       O  0.96110844  0.22364218  0.16883251    -0.75900
O1995       O  0.94159676  0.19786525  0.22620702    -0.85400
O1996       O  0.99084465  0.23422663  0.22581067    -0.85100
O1997       O  0.96623642  0.17560671  0.28487174    -0.71800
O1998       O  0.50941226  0.20846632  0.28139092    -0.84000
Zr1999     Zr  0.92353617  0.26909943  0.29873384     2.26400
Zr2000     Zr  0.91294902  0.19187825  0.27027915     2.06300
Zr2001     Zr  0.00512030  0.26193947  0.26826026     2.10000
Zr2002     Zr  0.93761309  0.24923175  0.21228261     1.78800
O2003       O  0.54177901  0.27655622  0.30288084    -0.92800
O2004       O  0.89421815  0.23581456  0.18269390    -0.40600
O2005       O  0.95171742  0.27683013  0.25465794    -0.77200
O2006       O  0.90735964  0.24345083  0.25546554    -0.95900
O2007       O  0.92841418  0.21798652  0.31296079    -0.89200
O2008       O  0.97687199  0.25501841  0.31221144    -0.92000
C2009       C  0.97909270  0.19869187  0.16518311     1.01700
C2010       C  0.56575098  0.20435207  0.24888724     1.14600
C2011       C  0.95114368  0.12380166  0.24663895     1.05400
O2012       O  0.87342732  0.18022962  0.23491186    -0.94200
O2013       O  0.86273121  0.21732495  0.28612926    -0.89900
O2014       O  0.87192027  0.25928375  0.31082123    -0.83100
C2015       C  0.85417402  0.24070018  0.30194583     1.12100
O2016       O  0.51826142  0.15819415  0.33696900    -0.96200
Zr2017     Zr  0.98181311  0.20359506  0.32613780     1.88900
O2018       O  0.92573568  0.26918373  0.35320180    -0.72800
O2019       O  0.89611001  0.16169608  0.30996013    -0.52100
O2020       O  0.96511060  0.16324210  0.35472539    -0.96800
O2021       O  0.52566553  0.21492283  0.35116274    -0.54000
O2022       O  0.95569859  0.22635779  0.36929403    -0.73300
C2023       C  0.93751527  0.25096462  0.37383139     0.99000
O2024       O  0.88408973  0.31351443  0.29189981    -0.62200
O2025       O  0.52605767  0.28717806  0.22727688    -0.57000
O2026       O  0.94248261  0.31672994  0.30465686    -0.93600
O2027       O  0.98665574  0.31545257  0.27790259    -0.92100
O2028       O  0.95790022  0.28794472  0.18429467    -0.92400
O2029       O  0.89856197  0.29277513  0.20177498    -0.91200
C2030       C  0.96426263  0.32925409  0.29344802     1.17800
H2031       H  0.50414916  0.23536872  0.20795080     0.33800
H2032       H  0.88588984  0.25101280  0.25047048     0.44600
H2033       H  0.98290762  0.26728579  0.32827136     0.38200
H2034       H  0.96938130  0.15498766  0.29138653     0.34600
H2035       H  0.89643495  0.24465725  0.16284869     0.26400
H2036       H  0.88273294  0.14867888  0.29989208     0.32400
H2037       H  0.97280561  0.16594512  0.37526002     0.38300
H2038       H  0.95127913  0.28506053  0.16344081     0.32700
H2039       H  0.50768927  0.30004439  0.21847240     0.31600
H2040       H  0.55945293  0.28087278  0.29082151     0.33300
H2041       H  0.51800940  0.23322016  0.36262179     0.32300
H2042       H  0.89487963  0.30280733  0.22126235     0.36300
H2043       H  0.89216226  0.32544969  0.27616300     0.29000
H2044       H  0.52694198  0.12873531  0.21305960     0.33200
H2045       H  0.52115327  0.15861801  0.35885924     0.36100
H2046       H  0.53789135  0.30137463  0.23760563     0.28700
H2047       H  0.86592579  0.30644053  0.28214781     0.41600
H2048       H  0.86579517  0.19950668  0.22486683     0.31600
H2049       H  0.89943072  0.21393037  0.17951886     0.39200
H2050       H  0.53865023  0.22184309  0.33547899     0.31100
H2051       H  0.91510105  0.14791770  0.31608410     0.31200
H2052       H  0.53401109  0.12615903  0.24750250     0.31400
Zr2053     Zr  0.74324968  0.24642380  0.48529504     2.17500
O2054       O  0.78292842  0.24295746  0.44707761    -0.50900
O2055       O  0.74222435  0.30036681  0.48518275    -0.74100
O2056       O  0.72113955  0.25103286  0.43474255    -0.80900
O2057       O  0.81043972  0.23448757  0.05427154    -0.82700
O2058       O  0.67076136  0.24282984  0.43330546    -0.78300
O2059       O  0.80496112  0.24663512  0.00524657    -0.89900
O2060       O  0.71237551  0.32157111  0.02308787    -0.75900
O2061       O  0.68974513  0.26602490  0.49243400    -0.85400
O2062       O  0.74402350  0.26445450  0.04077211    -0.85100
O2063       O  0.71535027  0.20552115  0.47443006    -0.71800
O2064       O  0.76880462  0.20435261  0.02054290    -0.84000
Zr2065     Zr  0.67927960  0.19924598  0.06505942     2.26400
Zr2066     Zr  0.66162454  0.22517473  0.48282703     2.06300
Zr2067     Zr  0.76108150  0.22111493  0.07036021     2.10000
Zr2068     Zr  0.68965218  0.28195110  0.04522190     1.78800
O2069       O  0.79984923  0.17904118  0.08601054    -0.92800
O2070       O  0.64634315  0.31453356  0.02142482    -0.40600
O2071       O  0.70676840  0.23994322  0.07635961    -0.77200
O2072       O  0.66124967  0.24185858  0.03401893    -0.95900
O2073       O  0.68688210  0.18250631  0.01510050    -0.89200
O2074       O  0.73346323  0.17984195  0.06067075    -0.92000
C2075       C  0.72830410  0.32240104  0.50021374     1.01700
C2076       C  0.82101682  0.24215618  0.02943981     1.14600
C2077       C  0.69526181  0.24917941  0.42088375     1.05400
O2078       O  0.61766490  0.26426158  0.47235027    -0.94200
O2079       O  0.61552122  0.20523949  0.49813499    -0.89900
O2080       O  0.62524937  0.19864381  0.04849842    -0.83100
C2081       C  0.61130836  0.19871435  0.02300764     1.12100
O2082       O  0.77374227  0.14872407  0.47045489    -0.96200
Zr2083     Zr  0.74059473  0.16386143  0.01030763     1.88900
O2084       O  0.68001973  0.14557648  0.06425380    -0.72800
O2085       O  0.64799318  0.18993118  0.44547295    -0.52100
O2086       O  0.71335370  0.13687512  0.46297703    -0.96800
O2087       O  0.77665937  0.12463061  0.03543626    -0.54000
O2088       O  0.70811584  0.12757768  0.02426925    -0.73300
C2089       C  0.68931878  0.12500415  0.04543371     0.99000
O2090       O  0.64323305  0.19959518  0.10622250    -0.62200
O2091       O  0.77917448  0.25465714  0.10707924    -0.57000
O2092       O  0.69656586  0.20308196  0.11709148    -0.93600
O2093       O  0.74662470  0.21234352  0.12029468    -0.92100
O2094       O  0.70531813  0.30936668  0.08820318    -0.92400
O2095       O  0.64768764  0.29743833  0.07981492    -0.91200
C2096       C  0.72124449  0.20751054  0.13186847     1.17800
H2097       H  0.75650269  0.27989728  0.04548079     0.33800
H2098       H  0.63938684  0.24906054  0.03687028     0.44600
H2099       H  0.73954186  0.16377334  0.07469258     0.38200
H2100       H  0.71831148  0.19908456  0.45405092     0.34600
H2101       H  0.64600387  0.33422619  0.03124699     0.26400
H2102       H  0.63296749  0.20199176  0.43178553     0.32400
H2103       H  0.72050475  0.11534791  0.46699885     0.38300
H2104       H  0.72802708  0.30271886  0.09052634     0.32700
H2105       H  0.79910990  0.24361935  0.11491958     0.31600
H2106       H  0.81160766  0.17284503  0.06779394     0.33300
H2107       H  0.77644970  0.10656111  0.02296137     0.32300
H2108       H  0.64565787  0.27903028  0.09109415     0.36300
H2109       H  0.62686127  0.21709935  0.10271794     0.29000
H2110       H  0.77727966  0.26079122  0.43419165     0.33200
H2111       H  0.77584825  0.12665058  0.46863568     0.36100
H2112       H  0.78523191  0.27146600  0.09555494     0.28700
H2113       H  0.63262746  0.18183894  0.10327687     0.41600
H2114       H  0.60344684  0.25449008  0.45946295     0.31600
H2115       H  0.64340843  0.31321301  0.50045332     0.39200
H2116       H  0.76619452  0.11998817  0.05385724     0.31100
H2117       H  0.66702518  0.18442248  0.43363134     0.31200
H2118       H  0.77956963  0.22565514  0.43451383     0.31400
Zr2119     Zr  0.75394713  0.43264935  0.30116734     2.17500
O2120       O  0.78891119  0.38491699  0.30324265    -0.50900
O2121       O  0.74913787  0.43130148  0.35563525    -0.74100
O2122       O  0.80939181  0.43817283  0.30757278    -0.80900
O2123       O  0.68211810  0.39456215  0.28581035    -0.82700
O2124       O  0.81871033  0.48154017  0.28617041    -0.78300
O2125       O  0.73364770  0.38466464  0.29846078    -0.89900
O2126       O  0.71781764  0.47327010  0.37097772    -0.75900
O2127       O  0.75268095  0.48376668  0.31533090    -0.85400
O2128       O  0.70130134  0.45077923  0.31384410    -0.85100
O2129       O  0.77024107  0.45751164  0.25799335    -0.71800
O2130       O  0.72307350  0.42771216  0.25698783    -0.84000
Zr2131     Zr  0.68095599  0.02285257  0.24052686     2.26400
Zr2132     Zr  0.76362645  0.01102647  0.27069413     2.06300
Zr2133     Zr  0.67059985  0.44672572  0.26994806     2.10000
Zr2134     Zr  0.69991798  0.50185485  0.32744177     1.78800
O2135       O  0.65151737  0.41811110  0.22951783    -0.92800
O2136       O  0.71777443  0.03807961  0.35826744    -0.40600
O2137       O  0.66823074  0.49829338  0.28395700    -0.77200
O2138       O  0.71123892  0.02842028  0.28494148    -0.95900
O2139       O  0.73319652  0.00558759  0.22672421    -0.89200
O2140       O  0.68593607  0.47224475  0.22726497    -0.92000
C2141       C  0.73502225  0.44813531  0.37592962     1.01700
C2142       C  0.70670283  0.37664346  0.29379936     1.14600
C2143       C  0.82770529  0.45654032  0.29946240     1.05400
O2144       O  0.78562351  0.04148340  0.30780408    -0.94200
O2145       O  0.75000579  0.06400355  0.25686586    -0.89900
O2146       O  0.69874291  0.07169281  0.24295648    -0.83100
C2147       C  0.72470732  0.08105986  0.24892472     1.12100
O2148       O  0.77628906  0.40942028  0.20439002    -0.96200
Zr2149     Zr  0.73838628  0.45378844  0.21456431     1.88900
O2150       O  0.68232859  0.02172909  0.18589256    -0.72800
O2151       O  0.79993248  0.01915410  0.23191491    -0.52100
O2152       O  0.78291742  0.46676737  0.18780560    -0.96800
O2153       O  0.71684238  0.41532935  0.18634290    -0.54000
O2154       O  0.71385327  0.47848999  0.17045775    -0.73300
C2155       C  0.69396689  0.00395993  0.16514904     0.99000
O2156       O  0.64721476  0.07107538  0.23545249    -0.62200
O2157       O  0.62958928  0.43573670  0.30272399    -0.57000
O2158       O  0.62592745  0.01853181  0.23728488    -0.93600
O2159       O  0.62041047  0.47651077  0.25923726    -0.92100
O2160       O  0.65275058  0.49369928  0.35273205    -0.92400
O2161       O  0.65993961  0.04753866  0.33624435    -0.91200
C2162       C  0.61146896  0.50247874  0.24783870     1.17800
H2163       H  0.69412767  0.43920227  0.32963448     0.33800
H2164       H  0.70896494  0.04892236  0.29161787     0.44600
H2165       H  0.67158958  0.47060090  0.21088687     0.38200
H2166       H  0.79108640  0.44880804  0.25267981     0.34600
H2167       H  0.70981347  0.03510009  0.37838067     0.26400
H2168       H  0.81567258  0.02953414  0.24208346     0.32400
H2169       H  0.77403887  0.48198833  0.17294922     0.38300
H2170       H  0.64014761  0.48508941  0.33733842     0.32700
H2171       H  0.62117164  0.41878429  0.29320417     0.31600
H2172       H  0.63239018  0.41162603  0.23726064     0.33300
H2173       H  0.72252312  0.41835153  0.16545254     0.32300
H2174       H  0.64933222  0.05255403  0.31682888     0.36300
H2175       H  0.63439252  0.06963512  0.21723234     0.29000
H2176       H  0.80122116  0.38520441  0.32196075     0.33200
H2177       H  0.78032700  0.40996533  0.18280505     0.36100
H2178       H  0.64046806  0.42708402  0.32095950     0.28700
H2179       H  0.63244775  0.07213592  0.25210952     0.41600
H2180       H  0.76731498  0.05379711  0.31677900     0.31600
H2181       H  0.74034358  0.03037269  0.35980413     0.39200
H2182       H  0.69399723  0.42158217  0.18660626     0.31100
H2183       H  0.81119294  0.99895146  0.22738795     0.31200
H2184       H  0.80400431  0.38573636  0.28710737     0.31400
C2185       C  0.62124035  0.20653331  0.26097230    -0.16000
C2186       C  0.59930190  0.19544791  0.24483355    -0.31200
H2187       H  0.61529569  0.21999056  0.28066577     0.13000
H2188       H  0.60630325  0.18034359  0.22646010     0.13600
C2189       C  0.69406495  0.21287147  0.17903844    -0.16000
C2190       C  0.72085178  0.20711013  0.16453444    -0.31200
H2191       H  0.67263668  0.21952323  0.16625031     0.13000
H2192       H  0.74270381  0.20143915  0.17686303     0.13600
C2193       C  0.72563137  0.11357659  0.24598687    -0.16000
C2194       C  0.70383863  0.13472536  0.25782945    -0.31200
H2195       H  0.74435299  0.12028140  0.23309878     0.13000
H2196       H  0.68665105  0.12805396  0.27268948     0.13600
C2197       C  0.67781376  0.09632847  0.04871109    -0.16000
C2198       C  0.68807948  0.07285007  0.03135262    -0.31200
H2199       H  0.66246644  0.09366741  0.06705079     0.13000
H2200       H  0.70374873  0.07542283  0.01325672     0.13600
C2201       C  0.69133468  0.99458413  0.11039973    -0.16000
C2202       C  0.68652279  0.01332586  0.13397695    -0.31200
H2203       H  0.69878565  0.97076463  0.11388780     0.13000
H2204       H  0.67664155  0.03664123  0.13034590     0.13600
C2205       C  0.61343353  0.99716511  0.04100363    -0.16000
C2206       C  0.59244779  0.50026222  0.01911150    -0.31200
H2207       H  0.60803695  0.98283887  0.05896811     0.13000
H2208       H  0.60037464  0.50972921  0.99893086     0.13600
C2209       C  0.98101337  0.20513058  0.11006535    -0.16000
C2210       C  0.98599397  0.18780327  0.13461405    -0.31200
H2211       H  0.47327823  0.22852808  0.11064857     0.13000
H2212       H  0.99602031  0.16437542  0.13232074     0.13600
C2213       C  0.57956944  0.19019917  0.02169039    -0.16000
C2214       C  0.55856095  0.19738140  0.04322197    -0.31200
H2215       H  0.57304677  0.17825748  0.00212740     0.13000
H2216       H  0.56388591  0.21179953  0.06136080     0.13600
C2217       C  0.98358729  0.12380767  0.03305448    -0.16000
C2218       C  0.99449537  0.09969834  0.04971014    -0.31200
H2219       H  0.46614724  0.12037723  0.01336661     0.13000
H2220       H  0.01054507  0.10176621  0.06814823     0.13600
C2221       C  0.97316397  0.07031499  0.25207637    -0.16000
C2222       C  0.95030868  0.09159231  0.24197810    -0.31200
H2223       H  0.99156768  0.07647636  0.26642209     0.13000
H2224       H  0.93050770  0.08520597  0.22979119     0.13600
C2225       C  0.55575491  0.50031741  0.25651031    -0.16000
C2226       C  0.57801278  0.51153566  0.24170124    -0.31200
H2227       H  0.55739171  0.98814390  0.27702145     0.13000
H2228       H  0.57144668  0.52662153  0.22305849     0.13600
C2229       C  0.95302441  0.49810102  0.15816282    -0.16000
C2230       C  0.98047290  0.49410790  0.17271423    -0.31200
H2231       H  0.92997131  0.00432409  0.16959472     0.13000
H2232       H  0.00154583  0.48711131  0.16020271     0.13600
C2233       C  0.72027279  0.37659356  0.50751579    -0.16000
C2234       C  0.73550461  0.35240996  0.49381519    -0.31200
H2235       H  0.70250351  0.37410585  0.52367718     0.13000
H2236       H  0.75303410  0.35492975  0.47741856     0.13600
C2237       C  0.79760028  0.45326655  0.00342382    -0.16000
C2238       C  0.81768300  0.44549754  0.02605936    -0.31200
H2239       H  0.80399273  0.46689039  0.98529865     0.13000
H2240       H  0.81027411  0.43426178  0.04544044     0.13600
C2241       C  0.72634173  0.45504105  0.42993019    -0.16000
C2242       C  0.73759014  0.43740552  0.40705610    -0.31200
H2243       H  0.71771064  0.47863162  0.42627629     0.13000
H2244       H  0.74821144  0.41438333  0.41123414     0.13600
C2245       C  0.93783522  0.24102276  0.42832795    -0.16000
C2246       C  0.93048984  0.25969124  0.40493497    -0.31200
H2247       H  0.94648946  0.21745616  0.42476864     0.13000
H2248       H  0.91966076  0.28265694  0.40877269     0.13600
C2249       C  0.87125192  0.24058416  0.00478880    -0.16000
C2250       C  0.85360656  0.24733953  0.02880942    -0.31200
H2251       H  0.86298480  0.22776657  0.98664197     0.13000
H2252       H  0.85489147  0.25970483  0.54199155     0.13600
C2253       C  0.93771412  0.31952475  0.50685287    -0.16000
C2254       C  0.92316415  0.34333604  0.49156913    -0.31200
H2255       H  0.95475209  0.32247035  0.52418290     0.13000
H2256       H  0.90621024  0.34036822  0.47416960     0.13600
C2257       C  0.79778275  0.24331968  0.29293216    -0.16000
C2258       C  0.82179471  0.24686616  0.31117655    -0.31200
H2259       H  0.80177324  0.23695709  0.26985467     0.13000
H2260       H  0.81756700  0.25643238  0.33318133     0.13600
C2261       C  0.72053785  0.24663046  0.37285753    -0.16000
C2262       C  0.69420054  0.25349429  0.38817872    -0.31200
H2263       H  0.74151736  0.23761309  0.38538555     0.13000
H2264       H  0.67224587  0.26129450  0.37673212     0.13600
C2265       C  0.72350855  0.32124144  0.29068097    -0.16000
C2266       C  0.70291550  0.34498010  0.29940085    -0.31200
H2267       H  0.74272186  0.32479987  0.27663444     0.13000
H2268       H  0.68226568  0.34110182  0.31121181     0.13600
C2269       C  0.96685209  0.38388660  0.28260066    -0.16000
C2270       C  0.96377315  0.36116789  0.30145087    -0.31200
H2271       H  0.96942385  0.37966157  0.25894030     0.13000
H2272       H  0.95738794  0.36656836  0.32429081     0.13600
C2273       C  0.96896533  0.45726706  0.36563875    -0.16000
C2274       C  0.95732799  0.44058754  0.38625484    -0.31200
H2275       H  0.98235662  0.47475922  0.37221089     0.13000
H2276       H  0.94292355  0.42411800  0.37899256     0.13600
C2277       C  0.86135632  0.44865016  0.30656084    -0.16000
C2278       C  0.88374832  0.45674642  0.28914583    -0.31200
H2279       H  0.86793493  0.43600136  0.32681446     0.13000
H2280       H  0.87760495  0.46696329  0.26758118     0.13600
C2281       C  0.95697464  0.44978334  0.83357315     0.86900
C2282       C  0.97009519  0.46952129  0.81075813    -0.53400
C2283       C  0.96141023  0.46480535  0.78180652     0.09800
C2284       C  0.94052596  0.43962600  0.77891789     0.20800
C2285       C  0.92159305  0.45534463  0.82790365    -0.54100
C2286       C  0.91285486  0.44989475  0.79939600     0.09900
C2287       C  0.96768491  0.41771879  0.82335491    -0.53600
C2288       C  0.95855368  0.41179968  0.79509826     0.10500
H2289       H  0.98466969  0.48586585  0.81750855     0.15000
H2290       H  0.93291552  0.43465467  0.75605927     0.00700
H2291       H  0.90491033  0.46312087  0.84500272     0.15300
H2292       H  0.97992321  0.40056830  0.83801093     0.15100
C2293       C  0.71258288  0.24529236  0.83852078     0.86900
C2294       C  0.69817169  0.22725989  0.81452038    -0.53400
C2295       C  0.70867547  0.23086102  0.78631857     0.09800
C2296       C  0.73251762  0.25350243  0.78526612     0.20800
C2297       C  0.74807605  0.23629147  0.83523008    -0.54100
C2298       C  0.75850900  0.24054945  0.80728958     0.09900
C2299       C  0.70572549  0.27787673  0.82794367    -0.53600
C2300       C  0.71687633  0.28279297  0.80045753     0.10500
H2301       H  0.68140459  0.21273154  0.81997821     0.15000
H2302       H  0.74153483  0.25740575  0.76294148     0.00700
H2303       H  0.76342547  0.22705596  0.85334578     0.15300
H2304       H  0.69563791  0.29585926  0.84247510     0.15100
C2305       C  0.93838559  0.28648027  0.00129910     0.86900
C2306       C  0.90592657  0.27965106  0.00876916    -0.53400
C2307       C  0.90160560  0.25113529  0.00172794     0.09800
C2308       C  0.93028762  0.23215599  0.98802790     0.20800
C2309       C  0.95409037  0.26440810  0.51739431    -0.54100
C2310       C  0.95029006  0.23565371  0.51078859     0.09900
C2311       C  0.94263750  0.27900411  0.96833121    -0.53600
C2312       C  0.93790682  0.25073071  0.96108942     0.10500
H2313       H  0.88108502  0.29848975  0.51305004     0.15000
H2314       H  0.92588167  0.20945418  0.98169072     0.00700
H2315       H  0.97033855  0.27030545  0.53410987     0.15300
H2316       H  0.94862072  0.29490795  0.95210176     0.15100
C2317       C  0.72880239  0.40922019  0.00228455     0.86900
C2318       C  0.75937026  0.41319405  0.50794240    -0.53400
C2319       C  0.76660883  0.44361101  0.00214155     0.09800
C2320       C  0.73771527  0.46306693  0.98860773     0.20800
C2321       C  0.70490227  0.43182689  0.51733235    -0.54100
C2322       C  0.70982627  0.46035729  0.51142360     0.09900
C2323       C  0.72351336  0.41656099  0.96924342    -0.53600
C2324       C  0.72887353  0.44451679  0.96177810     0.10500
H2325       H  0.77759945  0.39592272  0.51631886     0.15000
H2326       H  0.74237894  0.48561080  0.98217990     0.00700
H2327       H  0.68795488  0.42634309  0.53298380     0.15300
H2328       H  0.71695017  0.40062370  0.95308415     0.15100
C2329       C  0.97940546  0.49561994  0.70453927     0.86900
C2330       C  0.51378958  0.49145289  0.71271257    -0.53400
C2331       C  0.52021670  0.49794894  0.74144275     0.09800
C2332       C  0.99609406  0.01048727  0.75856921     0.20800
C2333       C  0.96446634  0.47668877  0.72694187    -0.54100
C2334       C  0.97073866  0.48287583  0.75620600     0.09900
C2335       C  0.97061420  0.02910606  0.71210219    -0.53600
C2336       C  0.97719308  0.03665723  0.74062212     0.10500
H2337       H  0.53192219  0.48318400  0.69709029     0.15000
H2338       H  0.00178071  0.01697997  0.78155108     0.00700
H2339       H  0.95137690  0.45925974  0.71982653     0.15300
H2340       H  0.95959324  0.04529764  0.69586378     0.15100
C2341       C  0.98293745  0.15688959  0.54055076     0.86900
C2342       C  0.96384829  0.18065925  0.52081386    -0.53400
C2343       C  0.96751731  0.20939419  0.52755160     0.09800
C2344       C  0.49031906  0.21054437  0.55320723     0.20800
C2345       C  0.51621391  0.16199259  0.53608141    -0.54100
C2346       C  0.52051676  0.19038551  0.54378428     0.09900
C2347       C  0.97370413  0.16584553  0.57235145    -0.53600
C2348       C  0.97829971  0.19410164  0.57994064     0.10500
H2349       H  0.94876398  0.17473381  0.50307174     0.15000
H2350       H  0.49438892  0.23318319  0.56013978     0.00700
H2351       H  0.53508793  0.14477593  0.52942933     0.15300
H2352       H  0.96440717  0.15088282  0.58754431     0.15100
C2353       C  0.68148241  0.03831712  0.54129584     0.86900
C2354       C  0.70072766  0.01465924  0.52207259    -0.53400
C2355       C  0.69335265  0.48692782  0.52783759     0.07000
C2356       C  0.67032710  0.48544987  0.55387120     0.20800
C2357       C  0.64767420  0.03299311  0.53662851    -0.54100
C2358       C  0.64319967  0.00436539  0.54300755     0.09900
C2359       C  0.69020428  0.02886570  0.57332308    -0.53600
C2360       C  0.68538530  0.00056984  0.58016867     0.10500
H2361       H  0.71607033  0.02071146  0.50514943     0.15000
H2362       H  0.66612663  0.46278202  0.56034774     0.00700
H2363       H  0.62893540  0.05037305  0.52946653     0.15300
H2364       H  0.69961371  0.04347143  0.58917471     0.15100
C2365       C  0.68949588  0.20191197  0.70771500     0.86900
C2366       C  0.65495676  0.20845286  0.71518382    -0.53400
C2367       C  0.64832987  0.20156673  0.74351747     0.09800
C2368       C  0.67721099  0.18881559  0.76219737     0.20800
C2369       C  0.70560399  0.21958996  0.73103892    -0.54100
C2370       C  0.69884082  0.21342620  0.75999129     0.09900
C2371       C  0.69933988  0.16887635  0.71555210    -0.53600
C2372       C  0.69293593  0.16154392  0.74396123     0.10500
H2373       H  0.63702534  0.21807957  0.69934315     0.15000
H2374       H  0.67128848  0.18246400  0.78491436     0.00700
H2375       H  0.71952134  0.23650070  0.72477226     0.15300
H2376       H  0.70846379  0.15234414  0.69911591     0.15100
Zr2377     Zr  0.91757415  0.44772641  0.98555821     2.17500
O2378       O  0.87561686  0.45504229  0.94820618    -0.50900
O2379       O  0.91783066  0.39390308  0.98693316    -0.74100
O2380       O  0.93550818  0.43817856  0.93524502    -0.80900
O2381       O  0.85887472  0.45978542  0.54722260    -0.82700
O2382       O  0.98052890  0.45724237  0.92883966    -0.78300
O2383       O  0.86258244  0.44714782  0.49823812    -0.89900
O2384       O  0.95149864  0.37569502  0.51738747    -0.75900
O2385       O  0.97190903  0.42929837  0.99010070    -0.85400
O2386       O  0.92207727  0.43384267  0.53361819    -0.85100
O2387       O  0.94321979  0.48935541  0.97230598    -0.71800
O2388       O  0.89924160  0.49344606  0.51197849    -0.84000
Zr2389     Zr  0.98886566  0.49724360  0.55929586     2.26400
Zr2390     Zr  0.99785994  0.47092560  0.97824975     2.06300
Zr2391     Zr  0.90662320  0.47762538  0.56256915     2.10000
Zr2392     Zr  0.97564127  0.41444332  0.54043624     1.78800
O2393       O  0.86966484  0.01927582  0.57426819    -0.92800
O2394       O  0.51957596  0.38106639  0.52018139    -0.40600
O2395       O  0.96039953  0.45744171  0.57060835    -0.77200
O2396       O  0.00576097  0.45323939  0.53019352    -0.95900
O2397       O  0.98620006  0.01255526  0.50834691    -0.89200
O2398       O  0.93958710  0.01737239  0.55261546    -0.92000
C2399       C  0.93392068  0.37200883  0.00099387     1.01700
C2400       C  0.84781775  0.45072634  0.52283181     1.14600
C2401       C  0.95741414  0.44505839  0.91912830     1.05400
O2402       O  0.53968844  0.42716914  0.96598919    -0.94200
O2403       O  0.54805429  0.48667758  0.99439286    -0.89900
O2404       O  0.54222325  0.49701470  0.54577721    -0.83100
C2405       C  0.55648221  0.49598741  0.52090900     1.12100
O2406       O  0.88799425  0.04857284  0.97167009    -0.96200
Zr2407     Zr  0.93274401  0.03261161  0.50195510     1.88900
O2408       O  0.99252711  0.05022700  0.55969146    -0.72800
O2409       O  0.52004979  0.99919443  0.94010136    -0.52100
O2410       O  0.94430737  0.06179469  0.96281562    -0.96800
O2411       O  0.89199661  0.06985112  0.52234497    -0.54000
O2412       O  0.96021708  0.07051814  0.52244064    -0.73300
C2413       C  0.98005930  0.07228990  0.54350971     0.99000
O2414       O  0.52348422  0.49805690  0.60266828    -0.62200
O2415       O  0.89128613  0.44571185  0.60164291    -0.57000
O2416       O  0.97602125  0.99468082  0.61003905    -0.93600
O2417       O  0.92051339  0.49006962  0.61260485    -0.92100
O2418       O  0.95559828  0.38743877  0.58089150    -0.92400
O2419       O  0.51751299  0.40036578  0.57776312    -0.91200
C2420       C  0.94659587  0.49331925  0.62478041     1.17800
H2421       H  0.90925845  0.41881137  0.53821070     0.33800
H2422       H  0.52715517  0.44687712  0.53427137     0.44600
H2423       H  0.93411676  0.03398457  0.56606384     0.38200
H2424       H  0.93805236  0.49541480  0.95203009     0.34600
H2425       H  0.51755112  0.36114374  0.52844409     0.26400
H2426       H  0.52893696  0.48997425  0.92876561     0.32400
H2427       H  0.96620588  0.05371173  0.95832687     0.38300
H2428       H  0.96108115  0.36597590  0.57573129     0.32700
H2429       H  0.86880651  0.45267534  0.60463406     0.31600
H2430       H  0.85605893  0.01086409  0.58843482     0.33300
H2431       H  0.89926855  0.07403529  0.54268431     0.32300
H2432       H  0.51724291  0.41823552  0.59060794     0.36300
H2433       H  0.53958006  0.48021011  0.60026362     0.29000
H2434       H  0.87694411  0.43587789  0.93720027     0.33200
H2435       H  0.88312622  0.07062645  0.97370445     0.36100
H2436       H  0.89221774  0.42565307  0.59247438     0.28700
H2437       H  0.53451330  0.51548034  0.59981397     0.41600
H2438       H  0.55742181  0.43672666  0.95922593     0.31600
H2439       H  0.51655275  0.37746017  0.99746383     0.39200
H2440       H  0.87420044  0.05887815  0.52539474     0.31100
H2441       H  0.99699014  0.01271010  0.92984780     0.31200
H2442       H  0.88148889  0.46964736  0.93373899     0.31400
Zr2443     Zr  0.98903925  0.18249068  0.74030603     2.17500
O2444       O  0.53210328  0.14062480  0.73410043    -0.50900
O2445       O  0.48424503  0.18012462  0.68497610    -0.74100
O2446       O  0.97390141  0.13249023  0.74072361    -0.80900
O2447       O  0.54990406  0.23323446  0.75537522    -0.82700
O2448       O  0.92294396  0.13689565  0.75348048    -0.78300
O2449       O  0.54268037  0.18828142  0.73552598    -0.89900
O2450       O  0.95198089  0.22308563  0.66981378    -0.75900
O2451       O  0.93557447  0.19615952  0.72688991    -0.85400
O2452       O  0.98332865  0.23409354  0.72648719    -0.85100
O2453       O  0.96182493  0.17353894  0.78472025    -0.71800
O2454       O  0.50532335  0.20836129  0.78108374    -0.84000
Zr2455     Zr  0.91625030  0.26539741  0.80099549     2.26400
Zr2456     Zr  0.90792861  0.18814160  0.77115283     2.06300
Zr2457     Zr  0.99809903  0.26077289  0.76926101     2.10000
Zr2458     Zr  0.92962173  0.24797800  0.71415678     1.78800
O2459       O  0.53426254  0.27311156  0.80591651    -0.92800
O2460       O  0.88426340  0.23623131  0.68645537    -0.40600
O2461       O  0.94403133  0.27459311  0.75699730    -0.77200
O2462       O  0.90027901  0.24010425  0.75751628    -0.95900
O2463       O  0.92330646  0.21390732  0.81420976    -0.89200
O2464       O  0.97023415  0.25261468  0.81322821    -0.92000
C2465       C  0.97060100  0.19863665  0.66543851     1.01700
C2466       C  0.55977850  0.20778267  0.74334742     1.14600
C2467       C  0.94874479  0.12152080  0.74526371     1.05400
O2468       O  0.86836822  0.17890815  0.73469961    -0.94200
O2469       O  0.85740445  0.21067173  0.79007469    -0.89900
O2470       O  0.86501974  0.25358343  0.81386932    -0.83100
C2471       C  0.84801290  0.23387399  0.80598672     1.12100
O2472       O  0.51831536  0.15775723  0.83065185    -0.96200
Zr2473     Zr  0.97719980  0.20102934  0.82646339     1.88900
O2474       O  0.92022187  0.26615829  0.85526268    -0.72800
O2475       O  0.89315076  0.15482848  0.80914163    -0.52100
O2476       O  0.96020936  0.16201950  0.85677311    -0.96800
O2477       O  0.52111624  0.21416046  0.85359198    -0.54000
O2478       O  0.95365194  0.22507523  0.87034308    -0.73300
C2479       C  0.93443772  0.24889304  0.87549996     0.99000
O2480       O  0.87559233  0.30914804  0.79611443    -0.62200
O2481       O  0.51956606  0.29046115  0.72996253    -0.57000
O2482       O  0.93363278  0.31388573  0.80570992    -0.93600
O2483       O  0.97901184  0.31342119  0.78086940    -0.92100
O2484       O  0.94946183  0.28605005  0.68483839    -0.92400
O2485       O  0.89170301  0.29292612  0.70599318    -0.91200
C2486       C  0.95563400  0.32676488  0.79543696     1.17800
H2487       H  0.49664998  0.23564880  0.70807040     0.33800
H2488       H  0.87851406  0.24699465  0.75309180     0.44600
H2489       H  0.97619931  0.26485216  0.82934550     0.38200
H2490       H  0.96579732  0.15276120  0.79069622     0.34600
H2491       H  0.88422301  0.24742378  0.66753063     0.26400
H2492       H  0.87966293  0.14225960  0.79857104     0.32400
H2493       H  0.96802490  0.16540276  0.87713063     0.38300
H2494       H  0.95658428  0.29982839  0.69972809     0.32700
H2495       H  0.53800877  0.29699079  0.73976466     0.31600
H2496       H  0.54442966  0.28912882  0.79705342     0.33300
H2497       H  0.51434088  0.23493537  0.86044635     0.32300
H2498       H  0.88273064  0.29784617  0.72580589     0.36300
H2499       H  0.88196415  0.32087508  0.77931001     0.29000
H2500       H  0.52651498  0.12818015  0.71726786     0.33200
H2501       H  0.52133136  0.15481334  0.85237847     0.36100
H2502       H  0.52836730  0.27613859  0.71451266     0.28700
H2503       H  0.85671055  0.30175753  0.78829201     0.41600
H2504       H  0.85703626  0.19903211  0.72964381     0.31600
H2505       H  0.88984310  0.21494372  0.68068968     0.39200
H2506       H  0.53721986  0.21601097  0.83865956     0.31100
H2507       H  0.91252839  0.14098210  0.81395498     0.31200
H2508       H  0.53175538  0.12797243  0.75203069     0.31400
Zr2509     Zr  0.75086962  0.24773461  0.99091168     2.17500
O2510       O  0.79233295  0.24160634  0.95442223    -0.50900
O2511       O  0.74894273  0.30170701  0.99025456    -0.74100
O2512       O  0.73178826  0.25662947  0.94062932    -0.80900
O2513       O  0.80322319  0.23689376  0.54840070    -0.82700
O2514       O  0.68633009  0.23809984  0.93379945    -0.78300
O2515       O  0.79837600  0.24361272  0.49834558    -0.89900
O2516       O  0.70858287  0.32023887  0.52059815    -0.75900
O2517       O  0.69680299  0.26620872  0.99502418    -0.85400
O2518       O  0.73883682  0.26262077  0.53573313    -0.85100
O2519       O  0.72488393  0.20589634  0.97823709    -0.71800
O2520       O  0.76157213  0.20279205  0.51481149    -0.84000
Zr2521     Zr  0.67387914  0.19827726  0.56298510     2.26400
Zr2522     Zr  0.67039375  0.22466526  0.98366788     2.06300
Zr2523     Zr  0.75617503  0.21932246  0.56522033     2.10000
Zr2524     Zr  0.68527945  0.28118079  0.54309724     1.78800
O2525       O  0.79890751  0.17955427  0.57738801    -0.92800
O2526       O  0.64123984  0.31515196  0.52227494    -0.40600
O2527       O  0.70246696  0.23857628  0.57360426    -0.77200
O2528       O  0.65541047  0.24186320  0.53337739    -0.95900
O2529       O  0.67857396  0.18196833  0.51274699    -0.89200
O2530       O  0.72758211  0.17864007  0.55609486    -0.92000
C2531       C  0.73319232  0.32381758  0.00378757     1.01700
C2532       C  0.81399823  0.24243999  0.52296314     1.14600
C2533       C  0.70943989  0.25004779  0.92427363     1.05400
O2534       O  0.62969341  0.26560148  0.96938806    -0.94200
O2535       O  0.62335087  0.20489486  0.99825673    -0.89900
O2536       O  0.61898451  0.19949649  0.54836767    -0.83100
C2537       C  0.60420007  0.19969503  0.52331181     1.12100
O2538       O  0.78861707  0.14958903  0.98290556    -0.96200
Zr2539     Zr  0.73192703  0.16304646  0.50555024     1.88900
O2540       O  0.67441512  0.14439759  0.56347475    -0.72800
O2541       O  0.65344620  0.19049806  0.94696044    -0.52100
O2542       O  0.72890613  0.13910394  0.96421775    -0.96800
O2543       O  0.77301328  0.12637249  0.52749292    -0.54000
O2544       O  0.70466906  0.12501752  0.52539953    -0.73300
C2545       C  0.68579091  0.12275809  0.54655703     0.99000
O2546       O  0.63942255  0.19927070  0.60543175    -0.62200
O2547       O  0.77149971  0.25335592  0.60297734    -0.57000
O2548       O  0.69409773  0.19977338  0.61390823    -0.93600
O2549       O  0.74526792  0.20553695  0.61533512    -0.92100
O2550       O  0.70424167  0.30951145  0.58385994    -0.92400
O2551       O  0.64598024  0.29575853  0.58052280    -0.91200
C2552       C  0.71991274  0.20174412  0.62783274     1.17800
H2553       H  0.75176138  0.27778703  0.54002920     0.33800
H2554       H  0.63384089  0.24946915  0.53718318     0.44600
H2555       H  0.73427995  0.16221637  0.56963088     0.38200
H2556       H  0.72941316  0.19959668  0.95804709     0.34600
H2557       H  0.64594844  0.33549217  0.52678541     0.26400
H2558       H  0.63753206  0.20316063  0.93461583     0.32400
H2559       H  0.70606791  0.14440443  0.96147231     0.38300
H2560       H  0.71049290  0.29450996  0.59972163     0.32700
H2561       H  0.79391339  0.24633136  0.60700035     0.31600
H2562       H  0.81336414  0.18936674  0.58996265     0.33300
H2563       H  0.76402420  0.11898283  0.54562548     0.32300
H2564       H  0.64956514  0.27950327  0.59551985     0.36300
H2565       H  0.62435180  0.21796646  0.60323892     0.29000
H2566       H  0.78985680  0.26056807  0.94296693     0.33200
H2567       H  0.78793272  0.12911024  0.97526881     0.36100
H2568       H  0.77093944  0.27281045  0.59270814     0.28700
H2569       H  0.62701156  0.18282195  0.60218340     0.41600
H2570       H  0.61324087  0.26529259  0.98430893     0.31600
H2571       H  0.65336881  0.31769350  0.00099744     0.39200
H2572       H  0.78880677  0.13835548  0.53498043     0.31100
H2573       H  0.67133591  0.18511508  0.93362871     0.31200
H2574       H  0.78705720  0.22629592  0.94020016     0.31400
Zr2575     Zr  0.75073927  0.42740425  0.80135198     2.17500
O2576       O  0.78501109  0.37966304  0.80766955    -0.50900
O2577       O  0.74687511  0.42805111  0.85603551    -0.74100
O2578       O  0.80604632  0.43346765  0.80632157    -0.80900
O2579       O  0.68008360  0.38732678  0.78434772    -0.82700
O2580       O  0.81455160  0.47744501  0.78551755    -0.78300
O2581       O  0.73113875  0.37861220  0.79888087    -0.89900
O2582       O  0.71682407  0.47090014  0.87090828    -0.75900
O2583       O  0.74933705  0.47912322  0.81367230    -0.85400
O2584       O  0.69828946  0.44546761  0.81445281    -0.85100
O2585       O  0.76666390  0.45172738  0.75742345    -0.71800
O2586       O  0.71991315  0.42101070  0.75752496    -0.84000
Zr2587     Zr  0.68028730  0.01226123  0.74065745     2.26400
Zr2588     Zr  0.76336377  0.00914933  0.77150689     2.06300
Zr2589     Zr  0.66745106  0.43987414  0.77082690     2.10000
Zr2590     Zr  0.69679021  0.49699030  0.82660654     1.78800
O2591       O  0.64485048  0.41169461  0.73204620    -0.92800
O2592       O  0.71235336  0.03400691  0.85458386    -0.40600
O2593       O  0.66459665  0.49170234  0.78379582    -0.77200
O2594       O  0.70941013  0.02195265  0.78476266    -0.95900
O2595       O  0.73382411  0.00095628  0.72753191    -0.89200
O2596       O  0.68247831  0.46439714  0.72742494    -0.92000
C2597       C  0.73389603  0.44580893  0.87622082     1.01700
C2598       C  0.70462943  0.36990424  0.79319307     1.14600
C2599       C  0.82389760  0.45240972  0.79865949     1.05400
O2600       O  0.78112330  0.04272537  0.80829889    -0.94200
O2601       O  0.74487725  0.06047695  0.75533775    -0.89900
O2602       O  0.69319966  0.06370081  0.74367958    -0.83100
C2603       C  0.71827429  0.07538508  0.74781433     1.12100
O2604       O  0.77273771  0.40141549  0.70584605    -0.96200
Zr2605     Zr  0.73482202  0.44626111  0.71431411     1.88900
O2606       O  0.68247091  0.01170723  0.68647246    -0.72800
O2607       O  0.79805027  0.02138182  0.73286337    -0.52100
O2608       O  0.77939472  0.45723234  0.68631966    -0.96800
O2609       O  0.71115739  0.40865042  0.68675325    -0.54000
O2610       O  0.71165947  0.47163234  0.66983704    -0.73300
C2611       C  0.69583734  0.99545277  0.66554445     0.99000
O2612       O  0.63659441  0.05111840  0.72783326    -0.62200
O2613       O  0.63003362  0.42936289  0.80777364    -0.57000
O2614       O  0.62623815  0.00236438  0.74437664    -0.93600
O2615       O  0.61711177  0.46854441  0.75834171    -0.92100
O2616       O  0.65029283  0.49044993  0.85392367    -0.92400
O2617       O  0.65204827  0.03247054  0.83216936    -0.91200
C2618       C  0.60835335  0.49357121  0.74499657     1.17800
H2619       H  0.69161295  0.43426723  0.83078464     0.33800
H2620       H  0.70493514  0.04240375  0.79158325     0.44600
H2621       H  0.66810838  0.46247431  0.71112531     0.38200
H2622       H  0.78756486  0.44312301  0.75216828     0.34600
H2623       H  0.70293502  0.03245349  0.87431389     0.26400
H2624       H  0.81165049  0.03421335  0.74288725     0.32400
H2625       H  0.77340902  0.45527937  0.66514321     0.38300
H2626       H  0.65543727  0.49438209  0.87496366     0.32700
H2627       H  0.61816909  0.41486806  0.79798088     0.31600
H2628       H  0.62887373  0.40211772  0.74224045     0.33300
H2629       H  0.71944806  0.40906616  0.66640931     0.32300
H2630       H  0.64693192  0.04051014  0.81191067     0.36300
H2631       H  0.63382194  0.06464061  0.74526668     0.29000
H2632       H  0.79845355  0.38205808  0.82525602     0.33200
H2633       H  0.77422296  0.39914074  0.68399056     0.36100
H2634       H  0.64241331  0.41760585  0.82361714     0.28700
H2635       H  0.64401386  0.06317347  0.71181747     0.41600
H2636       H  0.76178182  0.05472027  0.81569754     0.31600
H2637       H  0.73499987  0.02800550  0.85821448     0.39200
H2638       H  0.68887086  0.41720383  0.68443370     0.31100
H2639       H  0.81197800  0.00238008  0.72887031     0.31200
H2640       H  0.79912488  0.37807681  0.79048515     0.31400
C2641       C  0.61601536  0.20665928  0.75432791    -0.16000
C2642       C  0.59284648  0.20030346  0.73643997    -0.31200
H2643       H  0.61129178  0.21583344  0.77640467     0.13000
H2644       H  0.59841941  0.18833413  0.71574899     0.13600
C2645       C  0.69384005  0.20874044  0.67537022    -0.16000
C2646       C  0.72018873  0.19994704  0.66059164    -0.31200
H2647       H  0.67333729  0.21869602  0.66264399     0.13000
H2648       H  0.74150388  0.19080344  0.67247638     0.13600
C2649       C  0.71722448  0.10791028  0.74234391    -0.16000
C2650       C  0.69561975  0.12951131  0.75368843    -0.31200
H2651       H  0.73558013  0.11428676  0.72873698     0.13000
H2652       H  0.67900208  0.12355167  0.76955871     0.13600
C2653       C  0.67654812  0.09314799  0.55172487    -0.16000
C2654       C  0.68733779  0.06954662  0.53457140    -0.31200
H2655       H  0.66157209  0.09032717  0.57031061     0.13000
H2656       H  0.70251827  0.07246308  0.51618225     0.13600
C2657       C  0.69144747  0.98778928  0.61061145    -0.16000
C2658       C  0.68747795  0.00554388  0.63484665    -0.31200
H2659       H  0.69888577  0.96383740  0.61305816     0.13000
H2660       H  0.67733297  0.02892824  0.63220171     0.13600
C2661       C  0.61206914  0.99463505  0.54161414    -0.16000
C2662       C  0.58843106  0.50357621  0.52080833    -0.31200
H2663       H  0.60489551  0.98259610  0.56055590     0.13000
H2664       H  0.59540452  0.51515792  0.50145268     0.13600
C2665       C  0.97266703  0.20638661  0.61047851    -0.16000
C2666       C  0.97691583  0.18836494  0.63460021    -0.31200
H2667       H  0.46444347  0.22876964  0.61202124     0.13000
H2668       H  0.98631726  0.16484004  0.63181745     0.13600
C2669       C  0.57230941  0.19209386  0.52280886    -0.16000
C2670       C  0.55168491  0.20013057  0.54440560    -0.31200
H2671       H  0.56520896  0.18018188  0.50344693     0.13000
H2672       H  0.55739640  0.21454063  0.56239925     0.13600
C2673       C  0.97749835  0.12574509  0.53287166    -0.16000
C2674       C  0.98896806  0.10188064  0.54963435    -0.31200
H2675       H  0.46167632  0.12282007  0.51191617     0.13000
H2676       H  0.00415631  0.10447734  0.56862909     0.13600
C2677       C  0.97342132  0.06859204  0.75009708    -0.16000
C2678       C  0.94946300  0.08905911  0.74038251    -0.31200
H2679       H  0.99163349  0.07564203  0.76408713     0.13000
H2680       H  0.92990630  0.08181650  0.72852002     0.13600
C2681       C  0.55240160  0.49344489  0.75340587    -0.16000
C2682       C  0.57527119  0.50207135  0.73742758    -0.31200
H2683       H  0.56308690  0.01727672  0.76455480     0.13000
H2684       H  0.56946845  0.51554800  0.71751512     0.13600
C2685       C  0.94779699  0.49505827  0.65747779    -0.16000
C2686       C  0.97513169  0.48889087  0.67208991    -0.31200
H2687       H  0.93077713  0.00460581  0.66901514     0.13000
H2688       H  0.99589741  0.48093823  0.65946312     0.13600
C2689       C  0.72353963  0.37818766  0.00993555    -0.16000
C2690       C  0.73945203  0.35400405  0.99678383    -0.31200
H2691       H  0.70590248  0.37562482  0.02620669     0.13000
H2692       H  0.75696028  0.35663510  0.98039595     0.13600
C2693       C  0.79564504  0.45061311  0.50126543    -0.16000
C2694       C  0.81611402  0.44314397  0.52358421    -0.31200
H2695       H  0.80164184  0.46424592  0.48297395     0.13000
H2696       H  0.80911389  0.43205385  0.54324316     0.13600
C2697       C  0.72867174  0.45500821  0.93049114    -0.16000
C2698       C  0.73757105  0.43619271  0.90769210    -0.31200
H2699       H  0.72159059  0.47877344  0.92632675     0.13000
H2700       H  0.74686576  0.41288623  0.91217249     0.13600
C2701       C  0.93920318  0.23962627  0.92997871    -0.16000
C2702       C  0.92925623  0.25785880  0.90685124    -0.31200
H2703       H  0.94858616  0.21626566  0.92616587     0.13000
H2704       H  0.91778247  0.28054228  0.91106816     0.13600
C2705       C  0.86485058  0.24284712  0.49902728    -0.16000
C2706       C  0.84621345  0.24914412  0.52246388    -0.31200
H2707       H  0.85755574  0.22991671  0.48050923     0.13000
H2708       H  0.86298611  0.25783144  0.04801721     0.13600
C2709       C  0.94335606  0.31775890  0.00868201    -0.16000
C2710       C  0.92672647  0.34174144  0.99532272    -0.31200
H2711       H  0.96179908  0.32064611  0.02459092     0.13000
H2712       H  0.90833740  0.33882971  0.97935244     0.13600
C2713       C  0.79159303  0.23311801  0.79838715    -0.16000
C2714       C  0.81537327  0.23866658  0.81606768    -0.31200
H2715       H  0.79624145  0.22531650  0.77580670     0.13000
H2716       H  0.81046511  0.24954159  0.83739987     0.13600
C2717       C  0.70169956  0.24099621  0.86996675    -0.16000
C2718       C  0.71249901  0.25644778  0.89242212    -0.31200
H2719       H  0.68666493  0.22440306  0.87444899     0.13000
H2720       H  0.72825956  0.27219957  0.88712349     0.13600
C2721       C  0.72029235  0.31381654  0.79028037    -0.16000
C2722       C  0.70061536  0.33828271  0.79902596    -0.31200
H2723       H  0.73991011  0.31655971  0.77643797     0.13000
H2724       H  0.67948085  0.33515680  0.81041384     0.13600
C2725       C  0.96093669  0.38029258  0.78424764    -0.16000
C2726       C  0.95391073  0.35884897  0.80276430    -0.31200
H2727       H  0.96700368  0.37504069  0.76132195     0.13000
H2728       H  0.94449520  0.36546218  0.82444199     0.13600
C2729       C  0.96571683  0.45472107  0.86571256    -0.16000
C2730       C  0.95441793  0.43888795  0.88720255    -0.31200
H2731       H  0.97990560  0.47185197  0.87139104     0.13000
H2732       H  0.93928996  0.42270065  0.88089639     0.13600
C2733       C  0.85745251  0.44511681  0.80618021    -0.16000
C2734       C  0.87972752  0.45419111  0.78940586    -0.31200
H2735       H  0.86408222  0.43197882  0.82613223     0.13000
H2736       H  0.87367421  0.46490121  0.76804331     0.13600
C2737       C  0.95786076  0.95220971  0.33392374     0.86900
C2738       C  0.97115537  0.97211941  0.31144479    -0.53400
C2739       C  0.96157205  0.96851877  0.28255620     0.09800
C2740       C  0.93943642  0.94438057  0.27946100     0.20800
C2741       C  0.92238799  0.95908864  0.32922197    -0.54100
C2742       C  0.91261294  0.95487974  0.30078958     0.09900
C2743       C  0.96721077  0.92033820  0.32258792    -0.53600
C2744       C  0.95716457  0.91564545  0.29434743     0.10500
H2745       H  0.98683360  0.98744659  0.31828783     0.15000
H2746       H  0.93101802  0.94050060  0.25659919     0.00700
H2747       H  0.90644734  0.96684986  0.34692825     0.15300
H2748       H  0.97842677  0.90240018  0.33692271     0.15100
C2749       C  0.73094198  0.75184846  0.33779709     0.86900
C2750       C  0.71621012  0.73218563  0.31538190    -0.53400
C2751       C  0.72267402  0.73745313  0.28622161     0.09800
C2752       C  0.74289905  0.76296291  0.28278128     0.20800
C2753       C  0.76580460  0.74672932  0.33054586    -0.54100
C2754       C  0.77203455  0.75243530  0.30176399     0.09900
C2755       C  0.71937477  0.78426086  0.32835734    -0.53600
C2756       C  0.72608824  0.79051395  0.29966409     0.10500
H2757       H  0.70305424  0.71497112  0.32245922     0.15000
H2758       H  0.74870565  0.76854262  0.25981365     0.00700
H2759       H  0.78406631  0.73861507  0.34665988     0.15300
H2760       H  0.70965775  0.80135588  0.34401579     0.15100
C2761       C  0.93185450  0.78910267  0.49935277     0.86900
C2762       C  0.89879394  0.78193582  0.50355427    -0.53400
C2763       C  0.89533233  0.75345243  0.49530360     0.09800
C2764       C  0.92552573  0.73497049  0.48358052     0.20800
C2765       C  0.95103061  0.76562726  0.01683054    -0.54100
C2766       C  0.94639698  0.73707314  0.01047912     0.09900
C2767       C  0.93951128  0.78225493  0.46682471    -0.53600
C2768       C  0.93577862  0.75415698  0.45804015     0.10500
H2769       H  0.87835052  0.80074355  0.01635131     0.15000
H2770       H  0.92212129  0.71230735  0.47611576     0.00700
H2771       H  0.96827699  0.77115701  0.03271737     0.15300
H2772       H  0.94743990  0.79849317  0.45211610     0.15100
C2773       C  0.73001594  0.90725543  0.49915906     0.86900
C2774       C  0.76281180  0.91511830  0.00796653    -0.53400
C2775       C  0.76794156  0.94154799  0.49995241     0.09800
C2776       C  0.73887832  0.96161438  0.48755109     0.20800
C2777       C  0.70834755  0.93436687  0.01665541    -0.54100
C2778       C  0.71384089  0.96271905  0.01099235     0.09900
C2779       C  0.72409065  0.91609435  0.46650250    -0.53600
C2780       C  0.72945218  0.94432404  0.46015997     0.10500
H2781       H  0.78069889  0.89764831  0.01654485     0.15000
H2782       H  0.74354518  0.98435261  0.48189046     0.00700
H2783       H  0.69100308  0.92912549  0.03199968     0.15300
H2784       H  0.71709508  0.90096191  0.44974668     0.15100
C2785       C  0.98188296  0.99872361  0.20575413     0.86900
C2786       C  0.51568221  0.99436876  0.21414166    -0.53400
C2787       C  0.52045788  0.00177098  0.24295047     0.09800
C2788       C  0.99366367  0.51452751  0.26053919     0.20800
C2789       C  0.96633309  0.97989147  0.22779761    -0.54100
C2790       C  0.97179991  0.98626232  0.25716801     0.09900
C2791       C  0.97112489  0.53356069  0.21301570    -0.53600
C2792       C  0.97647213  0.54113043  0.24183064     0.10500
H2793       H  0.53474604  0.98624917  0.19945279     0.15000
H2794       H  0.99843487  0.52098407  0.28372791     0.00700
H2795       H  0.95344487  0.96238914  0.22044627     0.15300
H2796       H  0.96160111  0.54982796  0.19622206     0.15100
C2797       C  0.98097691  0.65771574  0.03694689     0.86900
C2798       C  0.95929910  0.68198875  0.02000434    -0.53400
C2799       C  0.96444326  0.71048565  0.02590077     0.09800
C2800       C  0.49245631  0.70963476  0.05094376     0.20800
C2801       C  0.51584513  0.66099069  0.03190866    -0.54100
C2802       C  0.52082084  0.68958321  0.03791898     0.09900
C2803       C  0.97689766  0.66611992  0.06986915    -0.53600
C2804       C  0.98267471  0.69422400  0.07656664     0.10500
H2805       H  0.94166632  0.67652296  0.00450406     0.15000
H2806       H  0.49748639  0.73230736  0.05654058     0.00700
H2807       H  0.53381108  0.64377105  0.02355310     0.15300
H2808       H  0.96983611  0.65106182  0.08637400     0.15100
C2809       C  0.67928162  0.54166944  0.03947125     0.86900
C2810       C  0.69867504  0.51745550  0.02090851    -0.53400
C2811       C  0.69757732  0.98923870  0.02742807     0.07000
C2812       C  0.67419826  0.98795572  0.05324284     0.20800
C2813       C  0.64570767  0.53532439  0.03593627    -0.54100
C2814       C  0.64218178  0.50683027  0.04386620     0.09900
C2815       C  0.68878099  0.53393435  0.07179154    -0.53600
C2816       C  0.68489475  0.50579845  0.08021544     0.10500
H2817       H  0.71322459  0.52301557  0.00306936     0.15000
H2818       H  0.67019828  0.96533447  0.06010040     0.00700
H2819       H  0.62646981  0.55191149  0.02823156     0.15300
H2820       H  0.69790196  0.54959756  0.08668768     0.15100
C2821       C  0.70758237  0.70398313  0.20899895     0.86900
C2822       C  0.67235910  0.70922410  0.21453934    -0.53400
C2823       C  0.66468333  0.70346691  0.24296009     0.09800
C2824       C  0.69298281  0.69327550  0.26339803     0.20800
C2825       C  0.72123816  0.72366023  0.23189021    -0.54100
C2826       C  0.71341738  0.71878068  0.26072755     0.09900
C2827       C  0.71896222  0.67185055  0.21899032    -0.53600
C2828       C  0.71084951  0.66565738  0.24719395     0.10500
H2829       H  0.65502477  0.71711841  0.19749170     0.15000
H2830       H  0.68622199  0.68811351  0.28622757     0.00700
H2831       H  0.73523453  0.74029647  0.22517349     0.15300
H2832       H  0.72972820  0.65474748  0.20381279     0.15100
Zr2833     Zr  0.91788917  0.94989357  0.48404374     2.17500
O2834       O  0.87718257  0.96348531  0.44627912    -0.50900
O2835       O  0.91590513  0.89649656  0.48394837    -0.74100
O2836       O  0.93636449  0.93905654  0.43431427    -0.80900
O2837       O  0.86445380  0.95686822  0.04893047    -0.82700
O2838       O  0.98313350  0.95531079  0.42906601    -0.78300
O2839       O  0.86586382  0.95001188  0.99882156    -0.89900
O2840       O  0.95581043  0.87501048  0.01450496    -0.75900
O2841       O  0.97155587  0.92914209  0.48949076    -0.85400
O2842       O  0.92790743  0.93182863  0.03329959    -0.85100
O2843       O  0.94643249  0.98957339  0.47150149    -0.71800
O2844       O  0.90305920  0.99269308  0.01471394    -0.84000
Zr2845     Zr  0.99422922  0.99506653  0.05990852     2.26400
Zr2846     Zr  0.00031805  0.96887486  0.47850960     2.06300
Zr2847     Zr  0.91266554  0.97403958  0.06419275     2.10000
Zr2848     Zr  0.98193779  0.91276641  0.03748918     1.78800
O2849       O  0.87109631  0.51816651  0.07608764    -0.92800
O2850       O  0.52076224  0.87438972  0.01465817    -0.40600
O2851       O  0.96682169  0.95412045  0.07004864    -0.77200
O2852       O  0.01055652  0.95288914  0.02829123    -0.95900
O2853       O  0.98258594  0.51401386  0.00851453    -0.89200
O2854       O  0.93745569  0.51664097  0.05392756    -0.92000
C2855       C  0.93056173  0.87420671  0.49854504     1.01700
C2856       C  0.85208423  0.95102309  0.02394092     1.14600
C2857       C  0.95929198  0.94459849  0.41883070     1.05400
O2858       O  0.53929999  0.92754822  0.46414041    -0.94200
O2859       O  0.54870390  0.98717400  0.49225398    -0.89900
O2860       O  0.54808115  0.99458186  0.04382727    -0.83100
C2861       C  0.56145570  0.99478127  0.01859276     1.12100
O2862       O  0.88653817  0.54804549  0.46609930    -0.96200
Zr2863     Zr  0.92846193  0.53191461  0.00342131     1.88900
O2864       O  0.99086433  0.55148191  0.05715700    -0.72800
O2865       O  0.51450058  0.50529526  0.44411696    -0.52100
O2866       O  0.94667637  0.55829141  0.45902218    -0.96800
O2867       O  0.88847956  0.56885172  0.02547621    -0.54000
O2868       O  0.95618466  0.57097030  0.02134687    -0.73300
C2869       C  0.97741147  0.57317042  0.04103301     0.99000
O2870       O  0.53693677  0.98639746  0.09621937    -0.62200
O2871       O  0.90123207  0.93901359  0.10218657    -0.57000
O2872       O  0.97575013  0.49802755  0.11054830    -0.93600
O2873       O  0.92636376  0.98714073  0.11380451    -0.92100
O2874       O  0.96773321  0.88059058  0.07680323    -0.92400
O2875       O  0.52610330  0.89482112  0.07177178    -0.91200
C2876       C  0.95129908  0.99397476  0.12555882     1.17800
H2877       H  0.91531322  0.91660947  0.03784791     0.33800
H2878       H  0.53280650  0.94288275  0.03189062     0.44600
H2879       H  0.93185742  0.53301660  0.06757837     0.38200
H2880       H  0.94209506  0.99570996  0.45110697     0.34600
H2881       H  0.51848974  0.85493343  0.02386102     0.26400
H2882       H  0.53033090  0.98814703  0.42530520     0.32400
H2883       H  0.96889262  0.54963110  0.45707037     0.38300
H2884       H  0.96449329  0.89374977  0.09446409     0.32700
H2885       H  0.88074160  0.94794335  0.11005538     0.31600
H2886       H  0.86705349  0.51627871  0.09754488     0.33300
H2887       H  0.89146857  0.58819386  0.01646629     0.32300
H2888       H  0.52584033  0.91141965  0.08623728     0.36300
H2889       H  0.53264275  0.00330142  0.11036093     0.29000
H2890       H  0.87677562  0.94531528  0.43399284     0.33200
H2891       H  0.88608958  0.56983475  0.46306581     0.36100
H2892       H  0.89703689  0.92099292  0.09119735     0.28700
H2893       H  0.53386481  0.96837344  0.10765505     0.41600
H2894       H  0.55483570  0.92612808  0.48065528     0.31600
H2895       H  0.51341604  0.87770573  0.49453008     0.39200
H2896       H  0.89489792  0.57059714  0.04654202     0.31100
H2897       H  0.00246975  0.50873506  0.43007482     0.31200
H2898       H  0.88522276  0.97797976  0.43305789     0.31400
Zr2899     Zr  0.00153036  0.68415692  0.23824832     2.17500
O2900       O  0.54337569  0.63879026  0.23898708    -0.50900
O2901       O  0.49889881  0.68164708  0.18525420    -0.74100
O2902       O  0.98181826  0.63600954  0.23878746    -0.80900
O2903       O  0.56742112  0.72978612  0.25777902    -0.82700
O2904       O  0.93017301  0.64505838  0.24926905    -0.78300
O2905       O  0.55793454  0.68667735  0.23550991    -0.89900
O2906       O  0.96802972  0.72649044  0.16692840    -0.75900
O2907       O  0.94967746  0.70306923  0.22223758    -0.85400
O2908       O  0.00148049  0.73551858  0.22580326    -0.85100
O2909       O  0.97026472  0.67830152  0.28104268    -0.71800
O2910       O  0.51865239  0.70683707  0.28383505    -0.84000
Zr2911     Zr  0.93269185  0.77307805  0.29685544     2.26400
Zr2912     Zr  0.91823527  0.69765971  0.26453621     2.06300
Zr2913     Zr  0.01633864  0.75957813  0.27032271     2.10000
Zr2914     Zr  0.94947809  0.75466321  0.21074597     1.78800
O2915       O  0.55137717  0.76402410  0.31374505    -0.92800
O2916       O  0.90262536  0.75137987  0.18103160    -0.40600
O2917       O  0.96432304  0.77903226  0.25476712    -0.77200
O2918       O  0.91624694  0.74974655  0.25213086    -0.95900
O2919       O  0.93327371  0.72171054  0.30898150    -0.89200
O2920       O  0.98478224  0.75487783  0.31266638    -0.92000
C2921       C  0.98421543  0.70068094  0.16271599     1.01700
C2922       C  0.57620103  0.70497842  0.24425901     1.14600
C2923       C  0.95522152  0.62742351  0.24258529     1.05400
O2924       O  0.88161387  0.69406667  0.22349628    -0.94200
O2925       O  0.86877279  0.72339532  0.28227710    -0.89900
O2926       O  0.87830444  0.76734830  0.30259820    -0.83100
C2927       C  0.86030286  0.74824717  0.29585281     1.12100
O2928       O  0.52371275  0.65800141  0.33486467    -0.96200
Zr2929     Zr  0.98530476  0.70335566  0.32448799     1.88900
O2930       O  0.93518283  0.77260345  0.35148460    -0.72800
O2931       O  0.89305950  0.66663996  0.29793981    -0.52100
O2932       O  0.96088092  0.66562008  0.35001921    -0.96800
O2933       O  0.52744823  0.71196150  0.35947975    -0.54000
O2934       O  0.96107098  0.72797344  0.36783946    -0.73300
C2935       C  0.94488788  0.75369806  0.37226209     0.99000
O2936       O  0.89809298  0.82054929  0.30342528    -0.62200
O2937       O  0.54464164  0.78894971  0.23872257    -0.57000
O2938       O  0.95072812  0.82153068  0.29069594    -0.93600
O2939       O  0.00308420  0.81214523  0.28373638    -0.92100
O2940       O  0.97914487  0.78824742  0.18504285    -0.92400
O2941       O  0.91773934  0.80273945  0.19945993    -0.91200
C2942       C  0.97756149  0.82997760  0.28796083     1.17800
H2943       H  0.51711065  0.73542950  0.21104232     0.33800
H2944       H  0.89531224  0.75853766  0.24646640     0.44600
H2945       H  0.99125825  0.76622486  0.32925201     0.38200
H2946       H  0.97175838  0.65768766  0.28721517     0.34600
H2947       H  0.90709875  0.75874566  0.16106660     0.26400
H2948       H  0.87885076  0.65690850  0.28498852     0.32400
H2949       H  0.93948370  0.67557450  0.35422985     0.38300
H2950       H  0.97344872  0.78659302  0.16375480     0.32700
H2951       H  0.56545505  0.78873125  0.24817280     0.31600
H2952       H  0.56061792  0.74328953  0.31917142     0.33300
H2953       H  0.52237409  0.70331454  0.37868106     0.32300
H2954       H  0.90894965  0.80992085  0.21880304     0.36300
H2955       H  0.88163726  0.82116239  0.28780278     0.29000
H2956       H  0.53853843  0.62674582  0.22156900     0.33200
H2957       H  0.52095906  0.65246912  0.35583832     0.36100
H2958       H  0.54870662  0.77716521  0.22024436     0.28700
H2959       H  0.88734657  0.81875858  0.32244411     0.41600
H2960       H  0.86767720  0.71357874  0.22323801     0.31600
H2961       H  0.90260521  0.72962974  0.17822634     0.39200
H2962       H  0.52405681  0.73385221  0.36297783     0.31100
H2963       H  0.90962667  0.65020468  0.30422926     0.31200
H2964       H  0.53982801  0.62666295  0.25658871     0.31400
Zr2965     Zr  0.74303041  0.74600277  0.48242947     2.17500
O2966       O  0.78344967  0.74183514  0.44488624    -0.50900
O2967       O  0.74320288  0.79987533  0.48190436    -0.74100
O2968       O  0.72268604  0.75010724  0.43160908    -0.80900
O2969       O  0.79879420  0.73855522  0.05256458    -0.82700
O2970       O  0.67331563  0.73916915  0.42839130    -0.78300
O2971       O  0.79632825  0.74765486  0.00276818    -0.89900
O2972       O  0.70504340  0.82380933  0.01526589    -0.75900
O2973       O  0.68938939  0.76629909  0.48840306    -0.85400
O2974       O  0.73360688  0.76737938  0.03531472    -0.85100
O2975       O  0.71429387  0.70553499  0.47136622    -0.71800
O2976       O  0.75908063  0.70685606  0.01792403    -0.84000
Zr2977     Zr  0.66793851  0.70242197  0.05567529     2.26400
Zr2978     Zr  0.66045389  0.72590158  0.47884175     2.06300
Zr2979     Zr  0.74837251  0.72531994  0.06708843     2.10000
Zr2980     Zr  0.67923951  0.78524549  0.03622210     1.78800
O2981       O  0.78754651  0.68664016  0.08855050    -0.92800
O2982       O  0.63790023  0.81851457  0.01042765    -0.40600
O2983       O  0.69376256  0.74382716  0.06911688    -0.77200
O2984       O  0.65200527  0.74462031  0.02375471    -0.95900
O2985       O  0.67782520  0.68424217  0.00659865    -0.89200
O2986       O  0.72226886  0.68368411  0.05490725    -0.92000
C2987       C  0.72900489  0.82229488  0.49623847     1.01700
C2988       C  0.81092778  0.74471970  0.02782931     1.14600
C2989       C  0.69796290  0.74641794  0.41680299     1.05400
O2990       O  0.61989317  0.76764074  0.46618909    -0.94200
O2991       O  0.61349228  0.70726193  0.49519782    -0.89900
O2992       O  0.61620746  0.69836426  0.03743966    -0.83100
C2993       C  0.60180939  0.70150462  0.01225664     1.12100
O2994       O  0.77224903  0.64711064  0.46902923    -0.96200
Zr2995     Zr  0.73201413  0.66597722  0.00566284     1.88900
O2996       O  0.66634719  0.64896055  0.05607518    -0.72800
O2997       O  0.64151169  0.69154623  0.44347221    -0.52100
O2998       O  0.70964102  0.63922437  0.45945293    -0.96800
O2999       O  0.77170640  0.63172766  0.03262548    -0.54000
O3000       O  0.70331360  0.62810507  0.02401083    -0.73300
C3001       C  0.68095315  0.62659778  0.04194524     0.99000
O3002       O  0.62692614  0.71925832  0.09111768    -0.62200
O3003       O  0.76007173  0.76263577  0.10319767    -0.57000
O3004       O  0.68479669  0.69229660  0.10658841    -0.93600
O3005       O  0.72844659  0.71361826  0.11516968    -0.92100
O3006       O  0.69224627  0.81377177  0.07946718    -0.92400
O3007       O  0.63520619  0.80077213  0.06846789    -0.91200
C3008       C  0.70588096  0.70043707  0.12370060     1.17800
H3009       H  0.74589666  0.78285147  0.04044954     0.33800
H3010       H  0.62995090  0.75162441  0.02565986     0.44600
H3011       H  0.72765004  0.66762381  0.06909193     0.38200
H3012       H  0.71760686  0.69866993  0.45117618     0.34600
H3013       H  0.63926824  0.83867850  0.01857073     0.26400
H3014       H  0.62787217  0.70450495  0.42933388     0.32400
H3015       H  0.71058561  0.61791181  0.46510718     0.38300
H3016       H  0.68826979  0.83497097  0.07296318     0.32700
H3017       H  0.78045040  0.75404388  0.11217885     0.31600
H3018       H  0.79451923  0.69561193  0.10712252     0.33300
H3019       H  0.76059215  0.62307360  0.04872906     0.32300
H3020       H  0.63855854  0.78675398  0.08553611     0.36300
H3021       H  0.63672455  0.73079757  0.10640599     0.29000
H3022       H  0.77899057  0.76027002  0.43266196     0.33200
H3023       H  0.77080812  0.62598713  0.46403324     0.36100
H3024       H  0.76459260  0.77984887  0.09130382     0.28700
H3025       H  0.61232509  0.73480105  0.08044003     0.41600
H3026       H  0.60014754  0.76131213  0.47251235     0.31600
H3027       H  0.64613733  0.81892537  0.49685196     0.39200
H3028       H  0.78470008  0.64490419  0.04297168     0.31100
H3029       H  0.65993148  0.68318888  0.43178936     0.31200
H3030       H  0.77950829  0.72530490  0.43152830     0.31400
Zr3031     Zr  0.75109933  0.93410869  0.30007413     2.17500
O3032       O  0.78643339  0.88674220  0.30406106    -0.50900
O3033       O  0.74654963  0.93205433  0.35429093    -0.74100
O3034       O  0.80564064  0.94117411  0.30778319    -0.80900
O3035       O  0.68085435  0.89414436  0.28577073    -0.82700
O3036       O  0.81403876  0.98531721  0.28733861    -0.78300
O3037       O  0.73304367  0.88537678  0.29562552    -0.89900
O3038       O  0.71756445  0.97500494  0.37035751    -0.75900
O3039       O  0.74895991  0.98539327  0.31382004    -0.85400
O3040       O  0.69842623  0.95086462  0.31341552    -0.85100
O3041       O  0.76707787  0.95915970  0.25687950    -0.71800
O3042       O  0.72002829  0.92799253  0.25641120    -0.84000
Zr3043     Zr  0.68546110  0.52331177  0.24142979     2.26400
Zr3044     Zr  0.76817983  0.50908917  0.27240921     2.06300
Zr3045     Zr  0.66752554  0.94620341  0.26969095     2.10000
Zr3046     Zr  0.69620150  0.00202342  0.32674695     1.78800
O3047       O  0.64872057  0.91900928  0.22801159    -0.92800
O3048       O  0.72539476  0.53517143  0.35902251    -0.40600
O3049       O  0.66458706  0.99782575  0.28338069    -0.77200
O3050       O  0.71585697  0.52793992  0.28598914    -0.95900
O3051       O  0.73772973  0.50505309  0.22796406    -0.89200
O3052       O  0.68229337  0.97167860  0.22676954    -0.92000
C3053       C  0.73404254  0.94940091  0.37492380     1.01700
C3054       C  0.70625772  0.87670501  0.29237425     1.14600
C3055       C  0.82333119  0.96042299  0.30075107     1.05400
O3056       O  0.78966097  0.53680521  0.31223535    -0.94200
O3057       O  0.75655059  0.56211261  0.25937618    -0.89900
O3058       O  0.70550946  0.57129958  0.24474725    -0.83100
C3059       C  0.73186094  0.57981434  0.25116252     1.12100
O3060       O  0.77337056  0.90923563  0.20777368    -0.96200
Zr3061     Zr  0.73488475  0.95402553  0.21393281     1.88900
O3062       O  0.68595420  0.52188608  0.18684008    -0.72800
O3063       O  0.80548522  0.52044459  0.23589138    -0.52100
O3064       O  0.77790202  0.96575241  0.18424363    -0.96800
O3065       O  0.71170167  0.91707692  0.18487500    -0.54000
O3066       O  0.71200596  0.97917086  0.16969974    -0.73300
C3067       C  0.69636584  0.50365813  0.16601875     0.99000
O3068       O  0.65289745  0.57188301  0.23381393    -0.62200
O3069       O  0.62661063  0.93421227  0.30203737    -0.57000
O3070       O  0.62973719  0.52079842  0.24001517    -0.93600
O3071       O  0.61697889  0.97585290  0.26019111    -0.92100
O3072       O  0.65046565  0.98966037  0.35171908    -0.92400
O3073       O  0.66735224  0.54968749  0.33690726    -0.91200
C3074       C  0.60789097  0.00077307  0.24677158     1.17800
H3075       H  0.69176800  0.93910884  0.32935151     0.33800
H3076       H  0.71408623  0.54833032  0.29294416     0.44600
H3077       H  0.66803095  0.96988137  0.21035783     0.38200
H3078       H  0.78814408  0.95096692  0.25179537     0.34600
H3079       H  0.71542290  0.53461487  0.37861428     0.26400
H3080       H  0.82125137  0.52945896  0.24757857     0.32400
H3081       H  0.77263415  0.98738940  0.17964284     0.38300
H3082       H  0.63437841  0.99002371  0.33578509     0.32700
H3083       H  0.61878445  0.91701699  0.29236435     0.31600
H3084       H  0.66395038  0.90040368  0.22654789     0.33300
H3085       H  0.72244058  0.91603376  0.16557138     0.32300
H3086       H  0.65677822  0.55530879  0.31759737     0.36300
H3087       H  0.64008756  0.56975120  0.21572420     0.29000
H3088       H  0.79769366  0.88752321  0.32331978     0.33200
H3089       H  0.77581808  0.90651373  0.18605261     0.36100
H3090       H  0.63750157  0.92578336  0.32035348     0.28700
H3091       H  0.63799181  0.57433807  0.25039570     0.41600
H3092       H  0.77168519  0.55094892  0.31948188     0.31600
H3093       H  0.74683262  0.52449407  0.36232592     0.39200
H3094       H  0.69020291  0.92677759  0.18001528     0.31100
H3095       H  0.81650414  0.50070142  0.22953371     0.31200
H3096       H  0.80234458  0.88752585  0.28868414     0.31400
C3097       C  0.63207698  0.70780518  0.25307606    -0.16000
C3098       C  0.60950209  0.69739497  0.23712748    -0.31200
H3099       H  0.62666349  0.71980245  0.27374349     0.13000
H3100       H  0.61566464  0.68326066  0.21789092     0.13600
C3101       C  0.71516500  0.70949638  0.17710392    -0.16000
C3102       C  0.70302474  0.69415115  0.15537788    -0.31200
H3103       H  0.72930689  0.72662478  0.17179003     0.13000
H3104       H  0.68805634  0.67786374  0.16124088     0.13600
C3105       C  0.73429802  0.61201034  0.24841150    -0.16000
C3106       C  0.71153752  0.63400898  0.25687823    -0.31200
H3107       H  0.75528593  0.61780750  0.23858421     0.13000
H3108       H  0.69172053  0.62845121  0.26895845     0.13600
C3109       C  0.67169573  0.59697228  0.04698063    -0.16000
C3110       C  0.68406638  0.57288137  0.03121200    -0.31200
H3111       H  0.65571630  0.59446504  0.06483030     0.13000
H3112       H  0.69983416  0.57547946  0.01321252     0.13600
C3113       C  0.69161907  0.49447872  0.11120767    -0.16000
C3114       C  0.68790095  0.51305363  0.13496941    -0.31200
H3115       H  0.69923849  0.47064672  0.11443922     0.13000
H3116       H  0.67790308  0.53637960  0.13163929     0.13600
C3117       C  0.61162828  0.49603136  0.04306496    -0.16000
C3118       C  0.59293679  0.00361152  0.01825969    -0.31200
H3119       H  0.60500640  0.48423790  0.06241785     0.13000
H3120       H  0.59946550  0.01552465  0.99893619     0.13600
C3121       C  0.98062909  0.70675312  0.10734589    -0.16000
C3122       C  0.98814463  0.68943676  0.13171228    -0.31200
H3123       H  0.47458702  0.72899568  0.11157395     0.13000
H3124       H  0.99747152  0.66590174  0.12888208     0.13600
C3125       C  0.56950537  0.69484404  0.01153295    -0.16000
C3126       C  0.55161835  0.69946975  0.03575708    -0.31200
H3127       H  0.56047826  0.68570766  0.99138511     0.13000
H3128       H  0.55969105  0.71106367  0.05489529     0.13600
C3129       C  0.97398190  0.62681076  0.03008384    -0.16000
C3130       C  0.98720782  0.60267273  0.04555092    -0.31200
H3131       H  0.45854958  0.62165331  0.01677083     0.13000
H3132       H  0.00478873  0.60495748  0.06255951     0.13600
C3133       C  0.97422173  0.57324496  0.25091049    -0.16000
C3134       C  0.95321043  0.59517498  0.23860749    -0.31200
H3135       H  0.99163160  0.57914576  0.26657587     0.13000
H3136       H  0.93417169  0.58936028  0.22490686     0.13600
C3137       C  0.55216355  0.99945358  0.25583098    -0.16000
C3138       C  0.57460312  0.00915005  0.24001824    -0.31200
H3139       H  0.56137335  0.48691044  0.27645194     0.13000
H3140       H  0.56833317  0.02246186  0.22007521     0.13600
C3141       C  0.95167186  0.99740237  0.15806298    -0.16000
C3142       C  0.97861001  0.99181328  0.17325865    -0.31200
H3143       H  0.93154387  0.50406147  0.17029912     0.13000
H3144       H  0.99969578  0.98374748  0.16112963     0.13600
C3145       C  0.72404433  0.87611863  0.50567814    -0.16000
C3146       C  0.73741600  0.85207609  0.49042271    -0.31200
H3147       H  0.70711172  0.87350516  0.52262975     0.13000
H3148       H  0.75430908  0.85452398  0.47338489     0.13600
C3149       C  0.79964094  0.95241943  0.00224821    -0.16000
C3150       C  0.82004921  0.94414155  0.02446146    -0.31200
H3151       H  0.80580062  0.96656062  0.98444026     0.13000
H3152       H  0.81292663  0.93243549  0.04366564     0.13600
C3153       C  0.72880556  0.95625502  0.42942474    -0.16000
C3154       C  0.73763412  0.93849098  0.40592501    -0.31200
H3155       H  0.72169359  0.98017473  0.42629419     0.13000
H3156       H  0.74693162  0.91500989  0.40945011     0.13600
C3157       C  0.94112021  0.74363102  0.42676376    -0.16000
C3158       C  0.93740693  0.76279684  0.40333929    -0.31200
H3159       H  0.94794914  0.71979140  0.42304199     0.13000
H3160       H  0.92829474  0.78625488  0.40692527     0.13600
C3161       C  0.86095030  0.74510439  0.00337406    -0.16000
C3162       C  0.84365171  0.74998119  0.02794437    -0.31200
H3163       H  0.85238442  0.73358422  0.98442746     0.13000
H3164       H  0.85495818  0.75748671  0.54008541     0.13600
C3165       C  0.93622008  0.82029460  0.50788221    -0.16000
C3166       C  0.92211382  0.84440877  0.49278490    -0.31200
H3167       H  0.95298024  0.82291382  0.52556463     0.13000
H3168       H  0.90532923  0.84183202  0.47510670     0.13600
C3169       C  0.80388823  0.74738110  0.28984840    -0.16000
C3170       C  0.82789094  0.75528638  0.30553706    -0.31200
H3171       H  0.80749912  0.73744766  0.26792830     0.13000
H3172       H  0.82355281  0.76782301  0.32608850     0.13600
C3173       C  0.72633859  0.74574251  0.37030913    -0.16000
C3174       C  0.69874407  0.74994573  0.38407434    -0.31200
H3175       H  0.74725566  0.73859374  0.38364645     0.13000
H3176       H  0.67718055  0.75580039  0.37137129     0.13600
C3177       C  0.72530413  0.82194215  0.28898893    -0.16000
C3178       C  0.70392674  0.84479526  0.29813938    -0.31200
H3179       H  0.74368864  0.82649435  0.27436384     0.13000
H3180       H  0.68407712  0.84003162  0.31067577     0.13600
C3181       C  0.95728633  0.88456794  0.28305192    -0.16000
C3182       C  0.97995935  0.86211477  0.29134051    -0.31200
H3183       H  0.93728885  0.87974581  0.27010259     0.13000
H3184       H  0.00105576  0.86745669  0.30207002     0.13600
C3185       C  0.96755346  0.95563889  0.36598228    -0.16000
C3186       C  0.95649756  0.93899609  0.38690577    -0.31200
H3187       H  0.98195089  0.97246104  0.37213638     0.13000
H3188       H  0.94107265  0.92321861  0.38016961     0.13600
C3189       C  0.85665725  0.95344699  0.30906971    -0.16000
C3190       C  0.87928663  0.96046859  0.29145047    -0.31200
H3191       H  0.86281262  0.94142000  0.32975429     0.13000
H3192       H  0.87340328  0.96975397  0.26944869     0.13600
C3193       C  0.96315460  0.95069976  0.83324994     0.86900
C3194       C  0.97775867  0.96912623  0.81016383    -0.53400
C3195       C  0.96799760  0.96524052  0.78139269     0.09800
C3196       C  0.94479485  0.94181998  0.77895270     0.20800
C3197       C  0.92790171  0.95916119  0.82805281    -0.54100
C3198       C  0.91794822  0.95436516  0.79977306     0.09900
C3199       C  0.97093561  0.91814458  0.82309289    -0.53600
C3200       C  0.96092132  0.91282243  0.79500771     0.10500
H3201       H  0.99375683  0.98436616  0.81649320     0.15000
H3202       H  0.93631012  0.93752563  0.75622783     0.00700
H3203       H  0.91227123  0.96847036  0.84544615     0.15300
H3204       H  0.98223159  0.90038839  0.83761635     0.15100
C3205       C  0.71070427  0.74718472  0.83323445     0.86900
C3206       C  0.69657964  0.72827117  0.80993300    -0.53400
C3207       C  0.70734445  0.73078821  0.78173224     0.09800
C3208       C  0.73090031  0.75349183  0.77972944     0.20800
C3209       C  0.74618212  0.73824058  0.83042857    -0.54100
C3210       C  0.75682659  0.74167883  0.80239937     0.09900
C3211       C  0.70385193  0.77931661  0.82160607    -0.53600
C3212       C  0.71485260  0.78305564  0.79389093     0.10500
H3213       H  0.67967588  0.71403476  0.81582604     0.15000
H3214       H  0.73999703  0.75662056  0.75725721     0.00700
H3215       H  0.76136996  0.72983297  0.84896063     0.15300
H3216       H  0.69274676  0.79793614  0.83488473     0.15100
C3217       C  0.92916229  0.78984623  0.99998432     0.86900
C3218       C  0.89627606  0.78389237  0.00732255    -0.53400
C3219       C  0.89144275  0.75541525  0.00050811     0.09800
C3220       C  0.91985855  0.73583897  0.98695697     0.20800
C3221       C  0.95293565  0.76499040  0.51714816    -0.54100
C3222       C  0.94970261  0.73632279  0.50957676     0.09900
C3223       C  0.93360387  0.78196295  0.96709305    -0.53600
C3224       C  0.92828175  0.75387084  0.95994375     0.10500
H3225       H  0.87979432  0.79805586  0.51192123     0.15000
H3226       H  0.91503760  0.71326004  0.98068180     0.00700
H3227       H  0.96826238  0.77062446  0.53482732     0.15300
H3228       H  0.94062942  0.79737297  0.95091586     0.15100
C3229       C  0.72946906  0.90994581  0.00002987     0.86900
C3230       C  0.76332484  0.91295674  0.50629340    -0.53400
C3231       C  0.76835618  0.94335108  0.00116519     0.09800
C3232       C  0.73999780  0.96365441  0.98780833     0.20800
C3233       C  0.70900576  0.93102523  0.51681021    -0.54100
C3234       C  0.71347406  0.95974596  0.51128878     0.09900
C3235       C  0.72487003  0.91812010  0.96710299    -0.53600
C3236       C  0.73109568  0.94597153  0.96049115     0.10500
H3237       H  0.78179584  0.89570601  0.51425708     0.15000
H3238       H  0.74531362  0.98612142  0.98192742     0.00700
H3239       H  0.69243994  0.92509255  0.53262556     0.15300
H3240       H  0.71831786  0.90277829  0.95032006     0.15100
C3241       C  0.98373705  0.99685494  0.70384981     0.86900
C3242       C  0.51813907  0.99418384  0.70949239    -0.53400
C3243       C  0.52493729  0.00114491  0.73802734     0.09800
C3244       C  0.99086616  0.50861526  0.75962774     0.20800
C3245       C  0.97068729  0.97701656  0.72661925    -0.54100
C3246       C  0.97721215  0.98349968  0.75569907     0.09900
C3247       C  0.96766302  0.52822172  0.71258343    -0.53600
C3248       C  0.97374928  0.53542482  0.74131798     0.10500
H3249       H  0.53604485  0.98837234  0.69299431     0.15000
H3250       H  0.99645141  0.51496313  0.78264952     0.00700
H3251       H  0.95842390  0.95886933  0.71984838     0.15300
H3252       H  0.95768642  0.54472340  0.69617363     0.15100
C3253       C  0.98034407  0.65711966  0.53951740     0.86900
C3254       C  0.96111540  0.68131190  0.52035745    -0.53400
C3255       C  0.96600125  0.70980043  0.52669501     0.09800
C3256       C  0.48903076  0.71197443  0.55252115     0.20800
C3257       C  0.51402018  0.66316959  0.53506429    -0.54100
C3258       C  0.51878358  0.69159696  0.54230435     0.09900
C3259       C  0.97254145  0.66610277  0.57166944    -0.53600
C3260       C  0.97815038  0.69407077  0.57908288     0.10500
H3261       H  0.94516531  0.67581995  0.50316855     0.15000
H3262       H  0.49349889  0.73463338  0.55897417     0.00700
H3263       H  0.53256652  0.64581856  0.52801480     0.15300
H3264       H  0.96352763  0.65134943  0.58729348     0.15100
C3265       C  0.67864362  0.53962990  0.54046751     0.86900
C3266       C  0.69740718  0.51558620  0.52122847    -0.53400
C3267       C  0.69667953  0.98587753  0.52804362     0.07000
C3268       C  0.67310970  0.98386322  0.55352111     0.20800
C3269       C  0.64472956  0.53437998  0.53663329    -0.54100
C3270       C  0.64023918  0.50591617  0.54372370     0.09900
C3271       C  0.68797749  0.53063602  0.57253564    -0.53600
C3272       C  0.68329506  0.50241711  0.57995164     0.10500
H3273       H  0.71239782  0.52126800  0.50381064     0.15000
H3274       H  0.66884735  0.96107324  0.55948273     0.00700
H3275       H  0.62593673  0.55175128  0.52956825     0.15300
H3276       H  0.69766412  0.54547278  0.58794809     0.15100
C3277       C  0.68804308  0.69856087  0.70491144     0.86900
C3278       C  0.65369553  0.70294222  0.71338606    -0.53400
C3279       C  0.64850528  0.69669135  0.74225371     0.09800
C3280       C  0.67862395  0.68602438  0.76015955     0.20800
C3281       C  0.70325265  0.71814463  0.72708595    -0.54100
C3282       C  0.69801917  0.71213057  0.75637233     0.09900
C3283       C  0.70073813  0.66617953  0.71340548    -0.53600
C3284       C  0.69591334  0.65918039  0.74225697     0.10500
H3285       H  0.63490445  0.71160204  0.69800728     0.15000
H3286       H  0.67410216  0.67981557  0.78329919     0.00700
H3287       H  0.71543857  0.73606125  0.71991220     0.15300
H3288       H  0.71079510  0.64969513  0.69729974     0.15100
Zr3289     Zr  0.91936543  0.95008457  0.98378546     2.17500
O3290       O  0.87886504  0.96140063  0.94539306    -0.50900
O3291       O  0.91721105  0.89681051  0.98337451    -0.74100
O3292       O  0.93867284  0.94040884  0.93395510    -0.80900
O3293       O  0.86202423  0.96047432  0.54847687    -0.82700
O3294       O  0.98481676  0.95781687  0.92889175    -0.78300
O3295       O  0.86462962  0.94946356  0.49912537    -0.89900
O3296       O  0.95228026  0.87589893  0.51782297    -0.75900
O3297       O  0.97344319  0.93022743  0.98776544    -0.85400
O3298       O  0.92508052  0.93387060  0.53429142    -0.85100
O3299       O  0.94643258  0.99131304  0.97276801    -0.71800
O3300       O  0.90238914  0.99406098  0.51288827    -0.84000
Zr3301     Zr  0.99312484  0.99636452  0.55871302     2.26400
Zr3302     Zr  0.00074410  0.97147968  0.97857426     2.06300
Zr3303     Zr  0.91045431  0.97771961  0.56316864     2.10000
Zr3304     Zr  0.97867241  0.91382041  0.53995476     1.78800
O3305       O  0.86563354  0.51906068  0.57347526    -0.92800
O3306       O  0.51975814  0.87897263  0.51569231    -0.40600
O3307       O  0.96430796  0.95686871  0.57046576    -0.77200
O3308       O  0.00911558  0.95231438  0.52920684    -0.95900
O3309       O  0.98246665  0.51329751  0.50885126    -0.89200
O3310       O  0.93519233  0.51783356  0.55254903    -0.92000
C3311       C  0.93264195  0.87407184  0.99664402     1.01700
C3312       C  0.85027068  0.95252956  0.52391497     1.14600
C3313       C  0.96152148  0.94637811  0.91854974     1.05400
O3314       O  0.54305771  0.92577550  0.96859428    -0.94200
O3315       O  0.54906238  0.98861642  0.99356403    -0.89900
O3316       O  0.54602212  0.99552970  0.54206279    -0.83100
C3317       C  0.56060025  0.99359985  0.51736721     1.12100
O3318       O  0.88192562  0.54453267  0.97205367    -0.96200
Zr3319     Zr  0.92893352  0.53269342  0.50171047     1.88900
O3320       O  0.98848177  0.55096703  0.55940249    -0.72800
O3321       O  0.51553967  0.50293378  0.94268081    -0.52100
O3322       O  0.94301483  0.55688432  0.95891224    -0.96800
O3323       O  0.88765961  0.56926732  0.52211860    -0.54000
O3324       O  0.95649270  0.57080580  0.52172642    -0.73300
C3325       C  0.97625085  0.57278648  0.54283146     0.99000
O3326       O  0.52957639  0.99245043  0.59858500    -0.62200
O3327       O  0.89589177  0.94527059  0.60212849    -0.57000
O3328       O  0.97174434  0.49504166  0.61052586    -0.93600
O3329       O  0.92425179  0.99205406  0.61244952    -0.92100
O3330       O  0.96121190  0.88630181  0.58137585    -0.92400
O3331       O  0.52014130  0.89841172  0.57401035    -0.91200
C3332       C  0.95065098  0.99434308  0.62441373     1.17800
H3333       H  0.91204467  0.91910792  0.53916740     0.33800
H3334       H  0.53013065  0.94512287  0.53104004     0.44600
H3335       H  0.92929263  0.53446774  0.56587830     0.38200
H3336       H  0.94177652  0.99806803  0.95258070     0.34600
H3337       H  0.51729943  0.85923869  0.52414210     0.26400
H3338       H  0.53236788  0.98513594  0.92630923     0.32400
H3339       H  0.96508315  0.55931523  0.96238574     0.38300
H3340       H  0.95298017  0.90193925  0.59585156     0.32700
H3341       H  0.87480490  0.95463028  0.60814149     0.31600
H3342       H  0.85522942  0.51235192  0.59112744     0.33300
H3343       H  0.89647565  0.57647625  0.54074275     0.32300
H3344       H  0.52057561  0.91614727  0.58691631     0.36300
H3345       H  0.54483859  0.97429926  0.59463045     0.29000
H3346       H  0.87946724  0.94289575  0.93340932     0.33200
H3347       H  0.88217454  0.56529021  0.96509437     0.36100
H3348       H  0.89259212  0.92652931  0.59192213     0.28700
H3349       H  0.54133232  0.00948991  0.59655553     0.41600
H3350       H  0.54167026  0.92233633  0.94689969     0.31600
H3351       H  0.51295063  0.87283612  0.99398436     0.39200
H3352       H  0.87173902  0.55727616  0.52871290     0.31100
H3353       H  0.99312390  0.51319877  0.93037982     0.31200
H3354       H  0.88627467  0.97612585  0.93199706     0.31400
Zr3355     Zr  0.98788699  0.68125256  0.74072053     2.17500
O3356       O  0.52944389  0.63906125  0.73145649    -0.50900
O3357       O  0.48277582  0.68093374  0.68516366    -0.74100
O3358       O  0.97251003  0.63123359  0.74152788    -0.80900
O3359       O  0.55000632  0.73043620  0.75822812    -0.82700
O3360       O  0.92111995  0.63654393  0.75278539    -0.78300
O3361       O  0.54157264  0.68655217  0.73682017    -0.89900
O3362       O  0.95589310  0.72367846  0.66937690    -0.75900
O3363       O  0.93509479  0.69587721  0.72547031    -0.85400
O3364       O  0.98401974  0.73283758  0.72730615    -0.85100
O3365       O  0.95903866  0.67290796  0.78440078    -0.71800
O3366       O  0.50402713  0.70720647  0.78193141    -0.84000
Zr3367     Zr  0.91457264  0.76607444  0.79895832     2.26400
Zr3368     Zr  0.90583338  0.68838637  0.76886897     2.06300
Zr3369     Zr  0.99788322  0.75947761  0.77064078     2.10000
Zr3370     Zr  0.93100916  0.74770707  0.71300473     1.78800
O3371       O  0.53422422  0.77497206  0.80473686    -0.92800
O3372       O  0.88832955  0.73570435  0.68155975    -0.40600
O3373       O  0.94449135  0.77433707  0.75619803    -0.77200
O3374       O  0.89976332  0.74034834  0.75516127    -0.95900
O3375       O  0.91973089  0.71461358  0.81223239    -0.89200
O3376       O  0.96783148  0.75215185  0.81337949    -0.92000
C3377       C  0.97311833  0.69840361  0.66516303     1.01700
C3378       C  0.55935779  0.70510172  0.74555388     1.14600
C3379       C  0.94700245  0.62067018  0.74551233     1.05400
O3380       O  0.86791558  0.67973890  0.73049335    -0.94200
O3381       O  0.85569609  0.71168231  0.78772334    -0.89900
O3382       O  0.86308372  0.75477323  0.81141978    -0.83100
C3383       C  0.84619076  0.73500834  0.80339747     1.12100
O3384       O  0.51787778  0.65966436  0.83668099    -0.96200
Zr3385     Zr  0.97273135  0.70059053  0.82671281     1.88900
O3386       O  0.91731388  0.76765853  0.85328683    -0.72800
O3387       O  0.88584603  0.65560176  0.80439712    -0.52100
O3388       O  0.94953625  0.66227727  0.85269480    -0.96800
O3389       O  0.51879986  0.71552881  0.85473629    -0.54000
O3390       O  0.94845511  0.72572152  0.86990943    -0.73300
C3391       C  0.93005199  0.75030052  0.87417446     0.99000
O3392       O  0.87288408  0.80836794  0.79093099    -0.62200
O3393       O  0.51787270  0.78722254  0.72802132    -0.57000
O3394       O  0.93234436  0.81481080  0.80353565    -0.93600
O3395       O  0.97924100  0.81299844  0.78105315    -0.92100
O3396       O  0.95108596  0.78820195  0.68761176    -0.92400
O3397       O  0.89169087  0.79100988  0.70249194    -0.91200
C3398       C  0.95524299  0.82720770  0.79428403     1.17800
H3399       H  0.49597741  0.73455459  0.70866284     0.33800
H3400       H  0.87819791  0.74748951  0.74999406     0.44600
H3401       H  0.97339269  0.76434498  0.82970673     0.38200
H3402       H  0.96246221  0.65222325  0.79066304     0.34600
H3403       H  0.89236645  0.74345879  0.66163729     0.26400
H3404       H  0.87296348  0.64361076  0.79231343     0.32400
H3405       H  0.95181853  0.66677312  0.87410404     0.38300
H3406       H  0.95489462  0.80240546  0.70358499     0.32700
H3407       H  0.53482538  0.79653704  0.73744611     0.31600
H3408       H  0.54501692  0.78949951  0.79409692     0.33300
H3409       H  0.51009908  0.73435670  0.86485693     0.32300
H3410       H  0.88539184  0.79909466  0.72231643     0.36300
H3411       H  0.88117002  0.82173125  0.77665799     0.29000
H3412       H  0.52257744  0.62726458  0.71466845     0.33200
H3413       H  0.51829496  0.65707116  0.85855965     0.36100
H3414       H  0.52873970  0.77197736  0.71444133     0.28700
H3415       H  0.85650953  0.80028465  0.77922235     0.41600
H3416       H  0.85471933  0.69943539  0.72752480     0.31600
H3417       H  0.89235976  0.71363896  0.67935302     0.39200
H3418       H  0.53288195  0.72175944  0.83964419     0.31100
H3419       H  0.90420723  0.64114532  0.81082182     0.31200
H3420       H  0.53001311  0.62589405  0.74912301     0.31400
Zr3421     Zr  0.74315360  0.74906264  0.98622205     2.17500
O3422       O  0.78476146  0.73698338  0.95036056    -0.50900
O3423       O  0.74452597  0.80252926  0.98611263    -0.74100
O3424       O  0.72621250  0.76042768  0.93583602    -0.80900
O3425       O  0.80312979  0.73446470  0.54581617    -0.82700
O3426       O  0.68225878  0.74004431  0.92627955    -0.78300
O3427       O  0.79816980  0.74294023  0.49602583    -0.89900
O3428       O  0.70817229  0.82067498  0.51569554    -0.75900
O3429       O  0.68891951  0.76785345  0.98682987    -0.85400
O3430       O  0.73809264  0.76271692  0.53257626    -0.85100
O3431       O  0.71772916  0.70730521  0.97245607    -0.71800
O3432       O  0.76024805  0.70229835  0.51205712    -0.84000
Zr3433     Zr  0.67168418  0.70004358  0.55966564     2.26400
Zr3434     Zr  0.66298266  0.72616476  0.97444258     2.06300
Zr3435     Zr  0.75462112  0.71931536  0.56223713     2.10000
Zr3436     Zr  0.68448386  0.78212972  0.53882644     1.78800
O3437       O  0.79366796  0.67621405  0.57423142    -0.92800
O3438       O  0.64053436  0.81604092  0.51778583    -0.40600
O3439       O  0.70106490  0.73977631  0.56983346    -0.77200
O3440       O  0.65401826  0.74323834  0.52920514    -0.95900
O3441       O  0.67648653  0.68308195  0.50958465    -0.89200
O3442       O  0.72507834  0.67941469  0.55321519    -0.92000
C3443       C  0.72824100  0.82516727  0.99834725     1.01700
C3444       C  0.81397527  0.74067451  0.52057479     1.14600
C3445       C  0.70523662  0.75303421  0.91827894     1.05400
O3446       O  0.62253971  0.76507014  0.95531127    -0.94200
O3447       O  0.61361947  0.70961184  0.98801925    -0.89900
O3448       O  0.61707216  0.70050265  0.54533636    -0.83100
C3449       C  0.60219283  0.70123993  0.52033011     1.12100
O3450       O  0.77767150  0.65101088  0.97514517    -0.96200
Zr3451     Zr  0.72963086  0.66320615  0.50282788     1.88900
O3452       O  0.67079403  0.64630635  0.56048827    -0.72800
O3453       O  0.65029433  0.68991310  0.93776299    -0.52100
O3454       O  0.71973428  0.63725618  0.96228119    -0.96800
O3455       O  0.76898429  0.62452629  0.52439405    -0.54000
O3456       O  0.70156173  0.62606376  0.52309837    -0.73300
C3457       C  0.68228282  0.62430986  0.54400697     0.99000
O3458       O  0.63714336  0.70614799  0.60223588    -0.62200
O3459       O  0.77271590  0.75220053  0.59960049    -0.57000
O3460       O  0.69197570  0.69958091  0.61067404    -0.93600
O3461       O  0.74240197  0.70781147  0.61265169    -0.92100
O3462       O  0.70298114  0.81070225  0.57963815    -0.92400
O3463       O  0.64560619  0.79708490  0.57655262    -0.91200
C3464       C  0.71737667  0.70257584  0.62485278     1.17800
H3465       H  0.75122560  0.77770977  0.53695047     0.33800
H3466       H  0.63244931  0.75105374  0.53279460     0.44600
H3467       H  0.73116617  0.66313575  0.56699123     0.38200
H3468       H  0.72348701  0.70073857  0.95258146     0.34600
H3469       H  0.64178229  0.83559166  0.52738984     0.26400
H3470       H  0.63977494  0.70214556  0.92121228     0.32400
H3471       H  0.72718101  0.61607648  0.96762062     0.38300
H3472       H  0.69524169  0.83192174  0.57468400     0.32700
H3473       H  0.79362165  0.74198791  0.60588319     0.31600
H3474       H  0.80225951  0.66916916  0.55477504     0.33300
H3475       H  0.76426695  0.60551117  0.51570235     0.32300
H3476       H  0.64290143  0.77813394  0.58653625     0.36300
H3477       H  0.62184070  0.72428574  0.59794092     0.29000
H3478       H  0.78558074  0.75566914  0.93908043     0.33200
H3479       H  0.78162865  0.62882685  0.97570774     0.36100
H3480       H  0.77674367  0.77015097  0.58857730     0.28700
H3481       H  0.62501781  0.68925569  0.60127680     0.41600
H3482       H  0.61113332  0.77323241  0.97312232     0.31600
H3483       H  0.64505008  0.81935540  0.98969858     0.39200
H3484       H  0.76367349  0.62322834  0.54560994     0.31100
H3485       H  0.67063351  0.68083937  0.92968921     0.31200
H3486       H  0.77715313  0.72308834  0.93587129     0.31400
Zr3487     Zr  0.75954135  0.93088496  0.80137858     2.17500
O3488       O  0.79867542  0.88614585  0.80564563    -0.50900
O3489       O  0.75498750  0.93096741  0.85592473    -0.74100
O3490       O  0.81215032  0.94266446  0.80901860    -0.80900
O3491       O  0.69993859  0.87931591  0.77846866    -0.82700
O3492       O  0.81635270  0.98733821  0.78727038    -0.78300
O3493       O  0.74675703  0.88006492  0.80168232    -0.89900
O3494       O  0.71998239  0.97078015  0.87008469    -0.75900
O3495       O  0.75050479  0.98247370  0.81465144    -0.85400
O3496       O  0.70574498  0.94134748  0.81267437    -0.85100
O3497       O  0.77284172  0.95718625  0.75776039    -0.71800
O3498       O  0.73274912  0.92058694  0.75617123    -0.84000
Zr3499     Zr  0.68143386  0.51564780  0.74056912     2.26400
Zr3500     Zr  0.76414233  0.50406387  0.76994008     2.06300
Zr3501     Zr  0.67893918  0.93152676  0.76772592     2.10000
Zr3502     Zr  0.69635981  0.99312074  0.82554544     1.78800
O3503       O  0.66168776  0.89812816  0.73045622    -0.92800
O3504       O  0.72290988  0.53243067  0.85474919    -0.40600
O3505       O  0.66753726  0.98324195  0.78202667    -0.77200
O3506       O  0.71201311  0.52235220  0.78438642    -0.95900
O3507       O  0.73349853  0.49799629  0.72624969    -0.89200
O3508       O  0.68942716  0.96076684  0.72577792    -0.92000
C3509       C  0.73980084  0.94754477  0.87577711     1.01700
C3510       C  0.72473699  0.86639809  0.79186930     1.14600
C3511       C  0.82788883  0.96314938  0.80112652     1.05400
O3512       O  0.78678676  0.53475638  0.80642461    -0.94200
O3513       O  0.75026116  0.55702918  0.75437420    -0.89900
O3514       O  0.69854894  0.56447767  0.74233342    -0.83100
C3515       C  0.72461253  0.57400668  0.74693831     1.12100
O3516       O  0.78587197  0.91052619  0.70075912    -0.96200
Zr3517     Zr  0.74295069  0.94943134  0.71376439     1.88900
O3518       O  0.68338449  0.51475780  0.68638375    -0.72800
O3519       O  0.80145197  0.51215925  0.73203236    -0.52100
O3520       O  0.78327745  0.96854737  0.68569236    -0.96800
O3521       O  0.72619738  0.90693576  0.68791515    -0.54000
O3522       O  0.71631803  0.97215084  0.66966257    -0.73300
C3523       C  0.69436718  0.49696593  0.66552659     0.99000
O3524       O  0.64756437  0.56363067  0.73402281    -0.62200
O3525       O  0.64331029  0.91760429  0.80467114    -0.57000
O3526       O  0.62655272  0.51157072  0.73650479    -0.93600
O3527       O  0.62805253  0.95189245  0.74882497    -0.92100
O3528       O  0.65365981  0.97741317  0.85297395    -0.92400
O3529       O  0.66206031  0.54357747  0.83596648    -0.91200
C3530       C  0.61349641  0.97835977  0.74449738     1.17800
H3531       H  0.70050228  0.92873023  0.82858155     0.33800
H3532       H  0.71004230  0.54295086  0.79075034     0.44600
H3533       H  0.67604112  0.95712495  0.70920131     0.38200
H3534       H  0.79443197  0.95097712  0.75292311     0.34600
H3535       H  0.71472257  0.53196798  0.87513256     0.26400
H3536       H  0.81864373  0.51966310  0.74307606     0.32400
H3537       H  0.77594458  0.99030636  0.68355301     0.38300
H3538       H  0.66244071  0.95813399  0.86245998     0.32700
H3539       H  0.63235635  0.93694658  0.81213617     0.31600
H3540       H  0.64712591  0.88707185  0.74101571     0.33300
H3541       H  0.70464609  0.91416248  0.68087173     0.32300
H3542       H  0.65355244  0.55022575  0.81609958     0.36300
H3543       H  0.63496719  0.56173998  0.71573644     0.29000
H3544       H  0.80913551  0.88768381  0.82521204     0.33200
H3545       H  0.78599529  0.91008235  0.67873702     0.36100
H3546       H  0.62721084  0.90904923  0.79301801     0.28700
H3547       H  0.63260236  0.56517005  0.75054093     0.41600
H3548       H  0.76886283  0.54877246  0.81395796     0.31600
H3549       H  0.74487206  0.52269158  0.85666336     0.39200
H3550       H  0.72381176  0.89231165  0.70377998     0.31100
H3551       H  0.81052068  0.49180852  0.72546839     0.31200
H3552       H  0.81464636  0.88848318  0.79072639     0.31400
C3553       C  0.61669408  0.70292240  0.75467309    -0.16000
C3554       C  0.59241701  0.69641887  0.73834155    -0.31200
H3555       H  0.61323168  0.71360910  0.77625508     0.13000
H3556       H  0.59704824  0.68321128  0.71821475     0.13600
C3557       C  0.69092302  0.70520373  0.67235377    -0.16000
C3558       C  0.71770701  0.70002978  0.65756817    -0.31200
H3559       H  0.66953676  0.71269848  0.65979412     0.13000
H3560       H  0.73966713  0.69353690  0.66949499     0.13600
C3561       C  0.72468653  0.60664205  0.74285274    -0.16000
C3562       C  0.70131434  0.62741227  0.75289195    -0.31200
H3563       H  0.74324651  0.61359521  0.72992209     0.13000
H3564       H  0.68422815  0.62051703  0.76773354     0.13600
C3565       C  0.67293537  0.59478050  0.54948970    -0.16000
C3566       C  0.68435973  0.57077473  0.53309314    -0.31200
H3567       H  0.65755108  0.59230080  0.56783619     0.13000
H3568       H  0.69986966  0.57332457  0.51486638     0.13600
C3569       C  0.68993613  0.48973579  0.61041602    -0.16000
C3570       C  0.68677619  0.50745961  0.63472343    -0.31200
H3571       H  0.69669402  0.46569132  0.61282889     0.13000
H3572       H  0.67749582  0.53105990  0.63211289     0.13600
C3573       C  0.60904070  0.49619999  0.54325595    -0.16000
C3574       C  0.59300236  0.00010643  0.51767943    -0.31200
H3575       H  0.60329884  0.48215820  0.56131090     0.13000
H3576       H  0.60141448  0.00974548  0.49781576     0.13600
C3577       C  0.97384932  0.70621338  0.60991204    -0.16000
C3578       C  0.97977225  0.68833271  0.63413462    -0.31200
H3579       H  0.46560650  0.73071917  0.61228055     0.13000
H3580       H  0.98976086  0.66498110  0.63112497     0.13600
C3581       C  0.57020124  0.69364914  0.52002195    -0.16000
C3582       C  0.55003685  0.70126949  0.54214146    -0.31200
H3583       H  0.56277923  0.68189509  0.50069979     0.13000
H3584       H  0.55618278  0.71546941  0.56014206     0.13600
C3585       C  0.97381690  0.62624647  0.53209078    -0.16000
C3586       C  0.98552979  0.60226534  0.54854434    -0.31200
H3587       H  0.45814670  0.62442489  0.51276084     0.13000
H3588       H  0.00141845  0.60466538  0.56703908     0.13600
C3589       C  0.97044394  0.56726798  0.75114280    -0.16000
C3590       C  0.94721982  0.58820997  0.74083191    -0.31200
H3591       H  0.98839295  0.57382416  0.76579511     0.13000
H3592       H  0.92785801  0.58136215  0.72832628     0.13600
C3593       C  0.55763244  0.00086109  0.74839327    -0.16000
C3594       C  0.58014350  0.98007469  0.73767352    -0.31200
H3595       H  0.55737764  0.48216832  0.77464764     0.13000
H3596       H  0.57367019  0.96192546  0.72415158     0.13600
C3597       C  0.95191041  0.99653177  0.65701708    -0.16000
C3598       C  0.97911887  0.98959751  0.67161404    -0.31200
H3599       H  0.92648401  0.50213317  0.66956227     0.13000
H3600       H  0.99965752  0.98083030  0.65900028     0.13600
C3601       C  0.72261149  0.87918412  0.00680867    -0.16000
C3602       C  0.73701314  0.85479453  0.99287431    -0.31200
H3603       H  0.70451916  0.87706982  0.02274298     0.13000
H3604       H  0.75520569  0.85683439  0.97702943     0.13600
C3605       C  0.79887020  0.95126586  0.50100436    -0.16000
C3606       C  0.81827781  0.94555525  0.52446855    -0.31200
H3607       H  0.80559106  0.96368223  0.48210939     0.13000
H3608       H  0.81045536  0.93563413  0.54444981     0.13600
C3609       C  0.73201649  0.95680297  0.92954018    -0.16000
C3610       C  0.74387052  0.93854953  0.90731994    -0.31200
H3611       H  0.72275625  0.98012201  0.92509186     0.13000
H3612       H  0.75514346  0.91590555  0.91233134     0.13600
C3613       C  0.93089522  0.74207611  0.92902552    -0.16000
C3614       C  0.92393949  0.76018298  0.90517723    -0.31200
H3615       H  0.93873950  0.71828294  0.92595805     0.13000
H3616       H  0.91385016  0.78345507  0.90848281     0.13600
C3617       C  0.86496933  0.74209467  0.49660866    -0.16000
C3618       C  0.84635831  0.74729654  0.52029899    -0.31200
H3619       H  0.85781179  0.72953677  0.47775920     0.13000
H3620       H  0.85320873  0.75921233  0.04778774     0.13600
C3621       C  0.93570030  0.82069687  0.00710925    -0.16000
C3622       C  0.92267350  0.84483280  0.99154251    -0.31200
H3623       H  0.95325936  0.82292630  0.02415655     0.13000
H3624       H  0.90499940  0.84281323  0.97454788     0.13600
C3625       C  0.79011471  0.73481239  0.79419881    -0.16000
C3626       C  0.81340314  0.73984158  0.81277248    -0.31200
H3627       H  0.79539825  0.72759488  0.77155146     0.13000
H3628       H  0.80806934  0.75013345  0.83429871     0.13600
C3629       C  0.69925973  0.74372106  0.86439526    -0.16000
C3630       C  0.70975569  0.75931751  0.88677203    -0.31200
H3631       H  0.68383929  0.72745151  0.86883123     0.13000
H3632       H  0.72591492  0.77479698  0.88182225     0.13600
C3633       C  0.71537962  0.81368987  0.78185281    -0.16000
C3634       C  0.72777698  0.83396410  0.79854533    -0.31200
H3635       H  0.70485387  0.81974363  0.76021472     0.13000
H3636       H  0.74030380  0.82645446  0.81897927     0.13600
C3637       C  0.96223814  0.88123357  0.78375904    -0.16000
C3638       C  0.95388772  0.85965675  0.80160693    -0.31200
H3639       H  0.96934676  0.87596706  0.76110626     0.13000
H3640       H  0.94379222  0.86648101  0.82296242     0.13600
C3641       C  0.97238361  0.95488770  0.86539613    -0.16000
C3642       C  0.95947020  0.94001100  0.88664347    -0.31200
H3643       H  0.98768507  0.97102047  0.87125821     0.13000
H3644       H  0.94341634  0.92479556  0.87999272     0.13600
C3645       C  0.86137111  0.95815671  0.80948119    -0.16000
C3646       C  0.88442553  0.96090352  0.79037350    -0.31200
H3647       H  0.86729497  0.94913992  0.83157157     0.13000
H3648       H  0.87874659  0.96664166  0.76727967     0.13600
loop_ 
_geom_bond_atom_site_label_1 
_geom_bond_atom_site_label_2 
_geom_bond_distance 
_geom_bond_site_symmetry_2 
_ccdc_geom_bond_type 
C1            C2   1.533       .  S
C1            C7   1.525       .  S
C1            C5   1.533       .  S
C1          C449   1.513       .  S
C2            H9   1.082       .  S
C2            C3   1.375       .  D
C3            C4   1.566       .  S
C3           C54   1.512       .  S
C4            C8   1.557       .  S
C4            C6   1.543       .  S
C4           H10   1.107       .  S
C5           H11   1.087       .  S
C5            C6   1.362       .  D
C6          C454   1.487       .  S
C7           H12   1.086       .  S
C7            C8   1.364       .  D
C8          C445   1.503       .  S
C13          C14   1.538       .  S
C13          C19   1.532       .  S
C13          C17   1.527       .  S
C13         C437   1.513       .  S
C14          H21   1.083       .  S
C14          C15   1.379       .  D
C15          C16   1.561       .  S
C15          C90   1.513       .  S
C16          C20   1.553       .  S
C16          C18   1.528       .  S
C16          H22   1.107       .  S
C17          H23   1.087       .  S
C17          C18   1.356       .  D
C18         C433   1.471       .  S
C19          H24   1.086       .  S
C19          C20   1.369       .  D
C20         C441   1.498       .  S
C25          C26   1.531       .  S
C25          C31   1.527       .  S
C25         C429   1.496       .  S
C25         C485   1.529       .  S
C26         H489   1.086       .  S
C26          C27   1.366       .  D
C27          C28   1.540       .  S
C27         C881   1.480       .  S
C28          C32   1.544       .  S
C28         C486   1.562       .  S
C28          H34   1.106       .  S
C29         C481   1.531   1_554  S
C29          H35   1.082       .  S
C29          C30   1.367       .  D
C30         C484   1.558   1_554  S
C30          C63   1.499       .  S
C31          H36   1.086       .  S
C31          C32   1.360       .  D
C32         C421   1.486       .  S
H33         C482   1.087       .  S
C37          C43   1.531       .  S
C37         C409   1.497       .  S
C37         C494   1.533       .  S
C37         C497   1.530       .  S
C38         C493   1.532       .  S
C38          H45   1.086       .  S
C38         C495   1.365       .  D
C39          C40   1.536       .  S
C39         C494   1.366       .  D
C39         C869   1.476       .  S
C40          C44   1.542       .  S
C40         C498   1.561       .  S
C40          H46   1.107       .  S
C41         C493   1.531       .  S
C41          H47   1.083       .  S
C41          C42   1.365       .  D
C42         C496   1.562   1_554  S
C42          C75   1.501       .  S
C43          H48   1.086       .  S
C43          C44   1.361       .  D
C44         C417   1.482       .  S
C49          C53   1.535       .  S
C49         C406   1.506       .  S
C49        C1874   1.529       .  S
C49         C967   1.527       .  S
C50        C1873   1.529   1_455  S
C50          H57   1.087       .  S
C50          C51   1.358       .  D
C51        C2788   1.536   1_455  S
C51         C401   1.478       .  S
C52          C56   1.547       .  S
C52        C2787   1.533       .  S
C52         C966   1.560   1_545  S
C52          H58   1.107       .  S
C53          H59   1.083       .  S
C53          C54   1.374       .  D
C54         C964   1.565       .  S
C55         C961   1.528   1_545  S
C55          H60   1.086       .  S
C55          C56   1.363       .  D
C56         C397   1.486       .  S
C61          C62   1.531       .  S
C61          C67   1.530       .  S
C61         C393   1.508       .  S
C61        C1889   1.538       .  S
C62          H69   1.082       .  S
C62          C63   1.366       .  D
C63        C1888   1.558       .  S
C64          C66   1.544   1_655  S
C64        C1887   1.559       .  S
C64        C1892   1.542       .  S
C64          H70   1.107   1_655  S
C65        C1885   1.537   1_455  S
C65          H71   1.086       .  S
C65          C66   1.370       .  D
C66         C390   1.487       .  S
C67          H72   1.086       .  S
C67          C68   1.362       .  D
C68        C1888   1.541       .  S
C68         C385   1.488       .  S
C73          C74   1.530       .  S
C73          C79   1.531       .  S
C73          C77   1.532       .  S
C73         C374   1.499       .  S
C74          H81   1.083   1_554  S
C74         C987   1.366   1_545  D
C75          C76   1.563       .  S
C75         C986   1.365       .  D
C76         C992   1.549       .  S
C76         C990   1.545       .  S
C76          H82   1.107       .  S
C77          H83   1.086       .  S
C77          C78   1.366       .  D
C78         C988   1.543   1_545  S
C78         C381   1.482   1_545  S
C79          H84   1.086       .  S
C79          C80   1.359       .  D
C80         C988   1.545   1_545  S
C80         C377   1.491   1_545  S
C85          C86   1.523       .  S
C85          C91   1.528       .  S
C85          C89   1.537       .  S
C85         C365   1.511       .  S
C86          H93   1.087       .  S
C86          C87   1.359       .  D
C87          C88   1.536       .  S
C87         C361   1.475       .  S
C88          C92   1.558       .  S
C88          C90   1.564       .  S
C88          H94   1.107       .  S
C89          H95   1.082       .  S
C89          C90   1.379       .  D
C91          H96   1.086       .  S
C91          C92   1.362       .  D
C92         C370   1.499       .  S
Zr97         O98   2.439       .  S
Zr97         O99   2.426       .  S
Zr97        O100   2.427       .  S
Zr97        O559   2.429       .  S
Zr97        O105   2.384       .  S
Zr97        O107   2.402       .  S
Zr97        O562   2.379       .  S
Zr97        O564   2.398       .  S
O98         H154   0.990       .  S
O98         H162   0.990       .  S
O99         C119   1.281       .  A
O100        C121   1.282       .  A
O101       Zr111   2.428       .  S
O101        C120   1.281       .  A
O102       Zr110   2.438       .  S
O102        C121   1.284       .  A
O103       Zr553   2.426   1_554  S
O103        C120   1.284       .  A
O104       Zr112   2.387       .  S
O104        C575   1.277   1_554  A
O105       Zr110   2.393       .  S
O105       Zr568   2.378       .  S
O106       Zr111   2.383       .  S
O106       Zr112   2.377       .  S
O106       Zr553   2.378   1_554  S
O106        H141   0.967       .  S
O107       Zr110   2.400       .  S
O107      Zr1495   2.385       .  S
O107        H144   0.966       .  S
O108       Zr111   2.388       .  S
O108       Zr553   2.397   1_554  S
O108      Zr1039   2.394       .  S
Zr109      O1958   2.441       .  S
Zr109      O1040   2.424       .  S
Zr109      O1048   2.439       .  S
Zr109      O1948   2.431       .  S
Zr109       O115   2.389       .  S
Zr109       O116   2.404       .  S
Zr109      O1029   2.381       .  S
Zr109      O1030   2.383       .  S
Zr110      O2865   2.437       .  S
Zr110      O1946   2.435       .  S
Zr110      O1947   2.437       .  S
Zr110       O572   2.405       .  S
Zr110      O1485   2.384       .  S
Zr111       O135   2.438       .  S
Zr111      O1025   2.435       .  S
Zr111       O137   2.411       .  S
Zr111       O115   2.395       .  S
Zr111      O1030   2.393       .  S
Zr112       O138   2.435       .  S
Zr112      O1963   2.435       .  S
Zr112      O1938   2.437       .  S
Zr112       O115   2.382       .  S
Zr112       O116   2.383       .  S
Zr112       O561   2.379   1_554  S
O113      Zr1023   2.433   1_545  S
O113        H150   0.990       .  S
O114      Zr1936   2.437   1_455  S
O114        H145   0.990       .  S
O114        H615   0.990   1_554  S
O116       Zr566   2.407   1_554  S
O116       H1966   0.966       .  S
O117       Zr127   2.370       .  S
O117      Zr1021   2.378   1_545  S
O117      Zr1478   2.387   1_544  S
O118       Zr127   2.380       .  S
O118      Zr1021   2.386   1_545  S
O118      Zr1023   2.398   1_545  S
O118        H143   0.966       .  S
C119        O560   1.280       .  A
C119        C430   1.467       .  S
C120        C414   1.468       .  S
C121        C450   1.469       .  S
O122      Zr1934   2.435   1_455  S
O122        H158   0.990       .  S
O123      Zr1934   2.430   1_455  S
O123        C581   1.282       .  A
O124      Zr1933   2.436   1_455  S
O124        C125   1.284       .  A
C125        O579   1.285   1_554  A
C125        C382   1.476       .  S
O126       Zr583   2.439       .  S
O126        H155   0.990       .  S
Zr127       O131   2.438       .  S
Zr127       O582   2.438   1_554  S
Zr127       O586   2.436   1_554  S
Zr127       O132   2.413       .  S
Zr127      O1475   2.385   1_544  S
Zr127      O1020   2.395   1_545  S
O128      Zr1021   2.434   1_545  S
O128        C133   1.283       .  A
O129      Zr2846   2.439   1_545  S
O129       H1058   0.990   1_545  S
O129       H1985   0.990   1_455  S
O130       Zr583   2.438       .  S
O130        H147   0.990       .  S
O131        H151   0.990       .  S
O131        H160   0.990       .  S
O132        C133   1.281       .  A
C133        C394   1.477       .  S
O134      Zr1933   2.441   1_455  S
O134        H153   0.991       .  S
O134        H157   0.990       .  S
O135        H149   0.990       .  S
O135        H156   0.990       .  S
O136      Zr1021   2.443       .  S
O136       C1052   1.288       .  A
O137        C140   1.279       .  A
O138        H148   0.990       .  S
O139      Zr1936   2.436   1_455  S
O139        H152   0.990       .  S
C140       O1048   1.288       .  A
C140        C405   1.475       .  S
H142       O1940   0.966       .  S
H146       O1041   0.990       .  S
H159        O570   0.990       .  S
H161       O1953   0.990       .  S
Zr163      O1988   2.442       .  S
Zr163       O166   2.444       .  S
Zr163      O1989   2.438       .  S
Zr163      O1993   2.418       .  S
Zr163       O171   2.375       .  S
Zr163       O172   2.392       .  S
Zr163       O173   2.406       .  S
Zr163      O1998   2.400       .  S
O164      Zr1987   2.443   1_455  S
O164        H220   0.990       .  S
O164        H228   0.991       .  S
O165      Zr1987   2.440       .  S
O165       C2009   1.284       .  A
O166        C187   1.284       .  A
O167      Zr2001   2.435       .  S
O167        C186   1.286       .  A
O168       Zr176   2.435       .  S
O168        C187   1.283       .  A
O169      Zr1987   2.416   1_455  S
O169        C186   1.280       .  A
O170       Zr178   2.425       .  S
O170        C185   1.281       .  A
O171       Zr176   2.395       .  S
O171       Zr178   2.382       .  S
O172       Zr177   2.403       .  S
O172       Zr178   2.378       .  S
O172       H2031   0.967       .  S
O173       Zr176   2.404       .  S
O173       Zr193   2.391       .  S
O173        H210   0.965       .  S
O174      Zr1987   2.402   1_455  S
O174      Zr2001   2.397       .  S
O174      Zr2017   2.383   1_455  S
Zr175       O200   2.446       .  S
Zr175       O194   2.454       .  S
Zr175       O202   2.423       .  S
Zr175       O190   2.406       .  S
Zr175       O181   2.398       .  S
Zr175       O182   2.409       .  S
Zr175       O183   2.376       .  S
Zr175       O184   2.372       .  S
Zr176       O195   2.435       .  S
Zr176       O188   2.434       .  S
Zr176       O189   2.429       .  S
Zr176       O182   2.396       .  S
Zr176       O183   2.394       .  S
Zr177      O2003   2.436       .  S
Zr177      O2025   2.435       .  S
Zr177       O203   2.473       .  S
Zr177      O1991   2.437       .  S
Zr177       O181   2.382       .  S
Zr177       O184   2.391       .  S
Zr177      O1998   2.403       .  S
Zr178       O204   2.435       .  S
Zr178       O205   2.436       .  S
Zr178       O180   2.439       .  S
Zr178       O181   2.398       .  S
Zr178       O182   2.396       .  S
O179      Zr2001   2.436       .  S
O179        H216   0.990       .  S
O180        H211   0.990       .  S
O180        H225   0.990       .  S
O182        H208   0.965       .  S
O183       Zr193   2.376       .  S
O184       Zr193   2.383       .  S
O184        H209   0.966       .  S
C185       O1989   1.283       .  A
C185        C386   1.478       .  S
C186        C362   1.462       .  S
C187        C398   1.473       .  S
O188        H224   0.990       .  S
O189        C191   1.284       .  A
O190        C191   1.279       .  A
C191        C434   1.455       .  S
O192      Zr2017   2.438   1_455  S
O192        H221   0.990       .  S
Zr193       O196   2.439       .  S
Zr193      O2016   2.439       .  S
Zr193      O2021   2.440       .  S
Zr193       O198   2.412       .  S
Zr193      O1998   2.387       .  S
O194        C199   1.288       .  A
O195        H212   0.990       .  S
O195        H227   0.990       .  S
O196        H213   0.990       .  S
O197      Zr2017   2.439   1_455  S
O197        H217   0.990       .  S
O197        H226   0.990       .  S
O198        C199   1.279       .  A
C199        C422   1.479       .  S
O200        H219   0.990       .  S
O200        H223   0.990       .  S
O201      Zr2001   2.435       .  S
O201        H215   0.990       .  S
O201        H222   0.990       .  S
O202        C206   1.283       .  A
O203        C206   1.290       .  A
O204        H214   0.990       .  S
O205        H218   0.990       .  S
C206        C446   1.482       .  S
H207       O1996   0.967   1_455  S
Zr229       O230   2.441       .  S
Zr229       O231   2.431       .  S
Zr229       O232   2.448       .  S
Zr229       O691   2.436       .  S
Zr229       O237   2.384       .  S
Zr229       O239   2.405       .  S
Zr229       O694   2.386       .  S
Zr229       O696   2.402       .  S
O230        H286   0.990       .  S
O230        H294   0.990       .  S
O231        C251   1.282       .  A
O232        C253   1.289       .  A
O233       Zr243   2.432       .  S
O233        C252   1.281       .  A
O234       Zr242   2.428       .  S
O234        C253   1.281       .  A
O235       Zr685   2.409   1_554  S
O235        C252   1.280       .  A
O236       Zr244   2.392       .  S
O236        C707   1.278       .  A
O237       Zr242   2.397       .  S
O237       Zr700   2.379       .  S
O238       Zr243   2.383       .  S
O238       Zr244   2.381       .  S
O238       Zr685   2.373   1_554  S
O238        H273   0.966       .  S
O239       Zr242   2.403       .  S
O239       Zr715   2.389       .  S
O239        H276   0.966       .  S
O240       Zr243   2.381       .  S
O240       Zr259   2.392       .  S
O240       Zr685   2.393   1_554  S
Zr241       O266   2.440       .  S
Zr241       O260   2.431       .  S
Zr241       O268   2.470       .  S
Zr241       O256   2.447       .  S
Zr241       O247   2.386       .  S
Zr241       O248   2.412       .  S
Zr241       O249   2.386       .  S
Zr241       O250   2.388       .  S
Zr242       O261   2.437       .  S
Zr242       O254   2.435       .  S
Zr242       O255   2.431       .  S
Zr242       O704   2.404       .  S
Zr242       O705   2.384       .  S
Zr243       O245   2.437       .  S
Zr243       O267   2.438       .  S
Zr243       O269   2.395       .  S
Zr243       O247   2.397       .  S
Zr243       O250   2.400       .  S
Zr244       O270   2.435       .  S
Zr244       O271   2.435       .  S
Zr244       O246   2.438       .  S
Zr244       O247   2.380       .  S
Zr244       O248   2.385       .  S
Zr244       O693   2.376   1_554  S
O245        H282   0.990       .  S
O246        H277   0.990       .  S
O246        H747   0.990       .  S
O248       Zr698   2.414   1_554  S
O248        H274   0.967       .  S
O249       Zr259   2.370       .  S
O249       Zr698   2.392   1_554  S
O250       Zr259   2.387       .  S
O250        H275   0.966       .  S
C251        O692   1.279       .  A
C251        C410   1.469       .  S
C252        C426   1.467       .  S
C253        C438   1.482       .  S
O254        H290   0.990       .  S
O255        C713   1.283       .  A
O256        C257   1.287       .  A
C257        O711   1.287   1_554  A
C257        C389   1.484       .  S
O258       Zr715   2.441       .  S
O258        H287   0.990       .  S
Zr259       O263   2.441       .  S
Zr259       O714   2.438   1_554  S
Zr259       O718   2.437   1_554  S
Zr259       O264   2.397       .  S
Zr259       O695   2.386   1_554  S
O260        C265   1.282       .  A
O261        H278   0.990       .  S
O261        H293   0.990       .  S
O262       Zr715   2.438       .  S
O262        H279   0.991       .  S
O263        H283   0.990       .  S
O263        H292   0.989       .  S
O264        C265   1.278       .  A
C265        C373   1.466       .  S
O266        H285   0.990       .  S
O266        H289   0.990       .  S
O267        H281   0.990       .  S
O267        H288   0.990       .  S
O268        C272   1.293       .  A
O269        C272   1.276       .  A
O270        H280   0.990       .  S
O271        H284   0.990       .  S
C272        C366   1.475       .  S
H291        O702   0.990       .  S
Zr295       O296   2.442       .  S
Zr295       O297   2.465       .  S
Zr295       O298   2.458       .  S
Zr295       O301   2.455       .  S
Zr295       O303   2.386       .  S
Zr295       O304   2.383       .  S
Zr295       O305   2.416       .  S
Zr295       O306   2.407       .  S
O296        H352   0.990       .  S
O296        H360   0.990       .  S
O297        C317   1.289       .  A
O298        C319   1.287       .  A
O299       Zr309   2.440       .  S
O299        C318   1.285       .  A
O300      Zr1220   2.429       .  S
O300        C319   1.283       .  A
O301        C318   1.288       .  A
O302       Zr310   2.399       .  S
O302        C317   1.277       .  A
O303       Zr310   2.386       .  S
O303      Zr1220   2.406       .  S
O304       Zr309   2.382       .  S
O304       Zr310   2.374       .  S
O304        H339   0.966       .  S
O305       Zr325   2.398       .  S
O305      Zr1220   2.405       .  S
O305        H342   0.964       .  S
O306       Zr309   2.394       .  S
O306       Zr325   2.399       .  S
Zr307       O332   2.444       .  S
Zr307       O326   2.459       .  S
Zr307       O334   2.434       .  S
Zr307       O322   2.459       .  S
Zr307       O314   2.412       .  S
Zr307       O315   2.379       .  S
Zr307      O1225   2.410   1_545  S
Zr307      O1228   2.391   1_545  S
Zr308       O327   2.437       .  S
Zr308       O320   2.434       .  S
Zr308       O321   2.461       .  S
Zr308      O1212   2.433   1_545  S
Zr308       O314   2.392       .  S
Zr308       O315   2.395       .  S
Zr308      O1215   2.404   1_545  S
Zr308      O1217   2.405   1_545  S
Zr309       O311   2.435       .  S
Zr309       O333   2.437       .  S
Zr309       O335   2.421       .  S
Zr309       O313   2.397       .  S
Zr309       O316   2.395       .  S
Zr310       O336   2.436       .  S
Zr310      O1249   2.437       .  S
Zr310      O1224   2.438       .  S
Zr310       O313   2.391       .  S
Zr310      O1226   2.377       .  S
O311        H348   0.990       .  S
O312      Zr1222   2.437       .  S
O312        H343   0.990       .  S
O312        H357   0.990       .  S
O313      Zr1219   2.410       .  S
O314      Zr1222   2.382       .  S
O314        H340   0.963       .  S
O315      Zr1237   2.391   1_545  S
O316       Zr325   2.384       .  S
O316      Zr1219   2.389       .  S
O316        H341   0.966       .  S
C317        C418   1.481       .  S
C318        C442   1.485       .  S
C319        C453   1.477       .  S
O320        H356   0.990       .  S
O321        C323   1.289       .  A
O322        C323   1.288       .  A
C323        C369   1.487       .  S
O324       Zr325   2.440       .  S
O324        H353   0.990       .  S
Zr325       O328   2.438       .  S
Zr325       O329   2.438       .  S
Zr325       O330   2.422       .  S
Zr325      O1227   2.386       .  S
O326        C331   1.288       .  A
O327        H344   0.990       .  S
O327        H359   0.990       .  S
O328        H345   0.990       .  S
O329        H349   0.990       .  S
O329        H358   0.989       .  S
O330       C1243   1.281       .  A
C331       O1242   1.280   1_545  A
C331        C378   1.483       .  S
O332        H351   0.990       .  S
O332        H355   0.991       .  S
O333        H347   0.990       .  S
O333        H354   0.990       .  S
O334       C1250   1.282       .  A
O335        C338   1.282       .  A
O336        H346   0.990       .  S
O337      Zr1222   2.436       .  S
O337        H350   0.990       .  S
C338       O1246   1.284       .  A
C338        C402   1.471       .  S
C361        H363   1.086       .  S
C361        C362   1.341       .  D
C362        H364   1.088       .  S
C365        H367   1.088       .  S
C365        C366   1.337       .  D
C366        H368   1.087       .  S
C369        H371   1.086       .  S
C369        C370   1.356       .  D
C370        H372   1.086       .  S
C373        H375   1.087       .  S
C373        C374   1.345       .  D
C374        H376   1.087       .  S
C377        H379   1.086       .  S
C377        C378   1.355   1_565  D
C378        H380   1.086       .  S
C381        H383   1.086       .  S
C381       C1294   1.345   1_565  D
C382        H384   1.087   1_554  S
C382       C1293   1.347       .  D
C385       H2211   1.086       .  S
C385        C386   1.349       .  D
C386        H388   1.086       .  S
H387       C2209   1.086       .  S
C389        H391   1.087   1_554  S
C389        C390   1.347       .  D
C390        H392   1.086       .  S
C393       H2219   1.087       .  S
C393        C394   1.346       .  D
C394        H396   1.087       .  S
H395       C2217   1.087       .  S
C397        H399   1.086       .  S
C397        C398   1.347       .  D
C398        H400   1.086       .  S
C401       H1315   1.086       .  S
C401        C402   1.345       .  D
C402        H404   1.087       .  S
H403       C1313   1.086       .  S
C405       H1319   1.087       .  S
C405        C406   1.339       .  D
C406        H408   1.087       .  S
H407       C1317   1.087   1_545  S
C409        H411   1.087       .  S
C409        C410   1.343       .  D
C410        H412   1.087       .  S
C413        H415   1.087   1_554  S
C413        C414   1.340       .  D
C413        C495   1.475       .  S
C414        H416   1.087       .  S
C417        H419   1.086       .  S
C417        C418   1.353       .  D
C418        H420   1.087       .  S
C421        H423   1.086       .  S
C421        C422   1.353       .  D
C422        H424   1.086       .  S
C425        H427   1.087   1_554  S
C425        C426   1.341       .  D
C425        C483   1.470       .  S
C426        H884   1.087       .  S
H428        C882   1.087       .  S
C429        H431   1.087       .  S
C429        C430   1.344       .  D
C430        H432   1.087       .  S
C433        H435   1.086       .  S
C433        C434   1.340       .  D
C434        H436   1.087       .  S
C437        H439   1.088       .  S
C437        C438   1.340       .  D
C438        H440   1.086       .  S
C441        H443   1.086       .  S
C441        C442   1.350       .  D
C442        H444   1.086       .  S
C445        H447   1.085       .  S
C445        C446   1.355       .  D
C446        H448   1.086       .  S
C449        H451   1.086       .  S
C449        C450   1.347       .  D
C450        H452   1.088       .  S
C453        H455   1.087       .  S
C453        C454   1.349       .  D
C454        H456   1.086       .  S
C457        C458   1.532       .  S
C457        C463   1.525       .  S
C457        C461   1.537       .  S
C457        C905   1.514       .  S
C458        H465   1.082       .  S
C458        C459   1.374       .  D
C459        C460   1.560       .  S
C459        C510   1.506       .  S
C460        C464   1.552       .  S
C460        C462   1.543       .  S
C460        H466   1.107       .  S
C461        H467   1.086       .  S
C461        C462   1.363       .  D
C462        C910   1.488       .  S
C463        H468   1.087       .  S
C463        C464   1.363       .  D
C464        C901   1.494       .  S
C469        C470   1.530       .  S
C469        C475   1.531       .  S
C469        C473   1.539       .  S
C469        C893   1.517       .  S
C470        H477   1.082       .  S
C470        C471   1.372       .  D
C471        C472   1.564       .  S
C471        C546   1.511       .  S
C472        C476   1.555       .  S
C472        C474   1.537       .  S
C472        H478   1.108       .  S
C473        H479   1.086       .  S
C473        C474   1.364       .  D
C474        C889   1.482       .  S
C475        H480   1.085       .  S
C475        C476   1.366       .  D
C476        C897   1.504       .  S
C481        C482   1.530   1_556  S
C481        C487   1.526       .  S
C481        C885   1.493   1_556  S
C482        C483   1.363       .  D
C483        C484   1.536   1_554  S
C484        C488   1.542       .  S
C484        H490   1.107       .  S
C485        H491   1.082       .  S
C485        C486   1.365       .  D
C486        C519   1.499       .  S
C487        H492   1.086       .  S
C487        C488   1.360       .  D
C488        C877   1.484       .  S
C493        C499   1.528   1_554  S
C493        C865   1.494       .  S
C494        H501   1.086       .  S
C495        C496   1.535   1_554  S
C496        C500   1.543       .  S
C496        H502   1.107       .  S
C497        H503   1.082       .  S
C497        C498   1.364       .  D
C498        C531   1.502       .  S
C499        H504   1.086       .  S
C499        C500   1.360       .  D
C500        C873   1.485       .  S
C505       C2330   1.528       .  S
C505       C1423   1.526       .  S
C505        C509   1.536       .  S
C505        C862   1.502       .  S
C506       C2329   1.528   1_455  S
C506        H513   1.087       .  S
C506        C507   1.358       .  D
C507       C3244   1.533   1_455  S
C507        C857   1.475       .  S
C508       C3243   1.539       .  S
C508        C512   1.550       .  S
C508       C1422   1.568   1_545  S
C508        H514   1.107       .  S
C509        H515   1.083       .  S
C509        C510   1.376       .  D
C510       C1420   1.560       .  S
C511       C1417   1.530   1_545  S
C511        H516   1.086       .  S
C511        C512   1.364       .  D
C512        C853   1.489       .  S
C517        C518   1.528       .  S
C517        C523   1.530       .  S
C517       C2345   1.530       .  S
C517        C849   1.496       .  S
C518        H525   1.082       .  S
C518        C519   1.364       .  D
C519       C2344   1.562       .  S
C520       C2343   1.563       .  S
C520       C2348   1.544       .  S
C520        C522   1.544   1_655  S
C520        H526   1.107       .  S
C521       C2341   1.532   1_455  S
C521        H527   1.086       .  S
C521        C522   1.367       .  D
C522        C846   1.486       .  S
C523        H528   1.086       .  S
C523        C524   1.361       .  D
C524       C2344   1.544       .  S
C524        C841   1.488       .  S
C529        C530   1.530       .  S
C529        C535   1.530       .  S
C529        C533   1.533       .  S
C529        C830   1.503       .  S
C530        H537   1.082       .  S
C530       C1443   1.365   1_545  D
C531        C532   1.562       .  S
C531       C1442   1.365       .  D
C532       C1448   1.545       .  S
C532       C1446   1.541       .  S
C532        H538   1.107       .  S
C533        H539   1.086       .  S
C533        C534   1.367       .  D
C534       C1444   1.543   1_545  S
C534        C837   1.483   1_545  S
C535        H540   1.086       .  S
C535        C536   1.362       .  D
C536       C1444   1.543   1_545  S
C536        C833   1.489   1_545  S
C541        C542   1.529       .  S
C541        C547   1.529       .  S
C541        C545   1.537       .  S
C541        C821   1.509       .  S
C542        H549   1.087       .  S
C542        C543   1.359       .  D
C543        C544   1.537       .  S
C543        C817   1.482       .  S
C544        C548   1.555       .  S
C544        C546   1.565       .  S
C544        H550   1.106       .  S
C545        H551   1.083       .  S
C545        C546   1.376       .  D
C547        H552   1.086       .  S
C547        C548   1.364       .  D
C548        C826   1.500       .  S
Zr553       O554   2.443       .  S
Zr553       O555   2.432       .  S
Zr553       O556   2.422       .  S
Zr553       O561   2.383       .  S
Zr553       O563   2.405       .  S
O554        H610   0.991       .  S
O554        H618   0.990       .  S
O555        C575   1.282       .  A
O556        C577   1.281       .  A
O557       Zr567   2.429       .  S
O557        C576   1.282       .  A
O558       Zr566   2.446       .  S
O558        C577   1.286       .  A
O559        C576   1.285       .  A
O560       Zr568   2.402       .  S
O561       Zr566   2.395       .  S
O562       Zr567   2.383       .  S
O562       Zr568   2.376       .  S
O562        H597   0.965       .  S
O563       Zr566   2.405       .  S
O563      Zr1039   2.388   1_556  S
O563        H600   0.966       .  S
O564       Zr567   2.386       .  S
O564      Zr1495   2.395       .  S
Zr565      O2414   2.441       .  S
Zr565      O1496   2.427       .  S
Zr565      O1504   2.439       .  S
Zr565      O2404   2.443       .  S
Zr565       O571   2.393       .  S
Zr565       O572   2.404       .  S
Zr565      O1485   2.377       .  S
Zr565      O1486   2.386       .  S
Zr566      O3321   2.437       .  S
Zr566      O2402   2.435       .  S
Zr566      O2403   2.444       .  S
Zr566      O1029   2.389   1_556  S
Zr567      O1481   2.435       .  S
Zr567       O591   2.439       .  S
Zr567       O593   2.407       .  S
Zr567       O571   2.399       .  S
Zr567      O1486   2.398       .  S
Zr568       O594   2.438       .  S
Zr568      O2419   2.436       .  S
Zr568      O2394   2.435       .  S
Zr568       O571   2.386       .  S
Zr568       O572   2.389       .  S
O569      Zr1479   2.433   1_545  S
O569        H606   0.990       .  S
O570      Zr2392   2.436   1_455  S
O570        H601   0.990       .  S
O572       H2422   0.965       .  S
O573      Zr1477   2.380   1_545  S
O573      Zr1022   2.387   1_545  S
O573       Zr583   2.371       .  S
O574      Zr1477   2.388   1_545  S
O574      Zr1479   2.396   1_545  S
O574       Zr583   2.383       .  S
O574        H599   0.966       .  S
C575        C886   1.465       .  S
C576        C870   1.469       .  S
C577        C906   1.470       .  S
O578      Zr2390   2.434   1_455  S
O578        H614   0.990       .  S
O579      Zr2390   2.441   1_455  S
O580      Zr2389   2.442   1_455  S
O580        C581   1.284       .  A
C581        C838   1.475       .  S
O582        H611   0.990       .  S
Zr583       O587   2.441       .  S
Zr583       O588   2.399       .  S
Zr583      O1019   2.385   1_545  S
Zr583      O1476   2.395   1_545  S
O584      Zr1477   2.424   1_545  S
O584        C589   1.280       .  A
O585      Zr3302   2.437   1_545  S
O585       H1514   0.990   1_545  S
O585       H2441   0.990   1_455  S
O586        H603   0.990       .  S
O587        H607   0.990       .  S
O587        H616   0.990       .  S
O588        C589   1.279       .  A
C589        C850   1.466       .  S
O590      Zr2389   2.441   1_455  S
O590        H609   0.990       .  S
O590        H613   0.990       .  S
O591        H605   0.990       .  S
O591        H612   0.990       .  S
O592      Zr1477   2.438       .  S
O592       C1508   1.288       .  A
O593        C596   1.277       .  A
O594        H604   0.991       .  S
O595      Zr2392   2.435   1_455  S
O595        H608   0.990       .  S
C596       O1504   1.288       .  A
C596        C861   1.472       .  S
H598       O2396   0.965       .  S
H602       O1497   0.990       .  S
H617       O2409   0.990   1_545  S
Zr619      O2444   2.442       .  S
Zr619      O2445   2.438       .  S
Zr619       O622   2.445       .  S
Zr619      O2449   2.413       .  S
Zr619       O627   2.377       .  S
Zr619       O628   2.390       .  S
Zr619       O629   2.402       .  S
Zr619      O2454   2.401       .  S
O620      Zr2443   2.443   1_455  S
O620        H676   0.990       .  S
O620        H684   0.990       .  S
O621      Zr2443   2.439       .  S
O621       C2465   1.284       .  A
O622        C643   1.285       .  A
O623      Zr2457   2.449   1_455  S
O623        C642   1.287       .  A
O624       Zr632   2.445       .  S
O624        C643   1.285       .  A
O625      Zr2443   2.415   1_455  S
O625        C642   1.280       .  A
O626       Zr634   2.428       .  S
O626        C641   1.282       .  A
O627       Zr632   2.398       .  S
O627       Zr634   2.383       .  S
O628       Zr633   2.401       .  S
O628       Zr634   2.376       .  S
O628       H2487   0.966       .  S
O629       Zr632   2.399       .  S
O629       Zr649   2.384       .  S
O629        H666   0.965       .  S
O630      Zr2443   2.401   1_455  S
O630      Zr2457   2.393   1_455  S
O630      Zr2473   2.389   1_455  S
Zr631       O656   2.445       .  S
Zr631       O650   2.449       .  S
Zr631       O658   2.428       .  S
Zr631       O646   2.432       .  S
Zr631       O637   2.406       .  S
Zr631       O638   2.409       .  S
Zr631       O639   2.373       .  S
Zr631       O640   2.377       .  S
Zr632       O651   2.435       .  S
Zr632       O644   2.437       .  S
Zr632       O645   2.436       .  S
Zr632       O638   2.396       .  S
Zr632       O639   2.392       .  S
Zr633      O2459   2.436       .  S
Zr633      O2481   2.439       .  S
Zr633      O2447   2.440       .  S
Zr633       O659   2.461       .  S
Zr633      O2454   2.395       .  S
Zr633       O637   2.389       .  S
Zr633       O640   2.390       .  S
Zr634       O660   2.436       .  S
Zr634       O661   2.436       .  S
Zr634       O636   2.437       .  S
Zr634       O637   2.398       .  S
Zr634       O638   2.401       .  S
O635      Zr2457   2.435   1_455  S
O635        H672   0.990       .  S
O636        H667   0.990       .  S
O636        H681   0.990       .  S
O638        H664   0.966       .  S
O639       Zr649   2.376       .  S
O640       Zr649   2.380       .  S
O640        H665   0.966       .  S
C641       O2445   1.284       .  A
C641        C842   1.479       .  S
C642        C818   1.468       .  S
C643        C854   1.479       .  S
O644        H680   0.990       .  S
O645        C647   1.285       .  A
O646        C647   1.284       .  A
C647        C890   1.474       .  S
O648      Zr2473   2.439   1_455  S
O648        H677   0.990       .  S
Zr649      O2472   2.437       .  S
Zr649       O652   2.437       .  S
Zr649      O2477   2.440       .  S
Zr649       O654   2.412       .  S
Zr649      O2454   2.387       .  S
O650        C655   1.287       .  A
O651        H668   0.990       .  S
O651        H683   0.990       .  S
O652        H669   0.990       .  S
O653      Zr2473   2.440   1_455  S
O653        H673   0.990       .  S
O653        H682   0.990       .  S
O654        C655   1.280       .  A
C655        C878   1.476       .  S
O656        H675   0.990       .  S
O656        H679   0.990       .  S
O657      Zr2457   2.440   1_455  S
O657        H671   0.990       .  S
O657        H678   0.990       .  S
O658        C662   1.283       .  A
O659        C662   1.289       .  A
O660        H670   0.990       .  S
O661        H674   0.990       .  S
C662        C902   1.478       .  S
H663       O2452   0.966       .  S
Zr685       O686   2.441       .  S
Zr685       O687   2.430       .  S
Zr685       O688   2.402       .  S
Zr685       O693   2.384       .  S
Zr685       O695   2.402       .  S
O686        H742   0.990       .  S
O686        H750   0.990       .  S
O687        C707   1.282   1_556  A
O688        C709   1.277       .  A
O689       Zr699   2.431       .  S
O689        C708   1.282       .  A
O690       Zr698   2.465       .  S
O690        C709   1.289       .  A
O691        C708   1.285       .  A
O692       Zr700   2.399       .  S
O693       Zr698   2.391       .  S
O694       Zr699   2.389       .  S
O694       Zr700   2.379       .  S
O694        H729   0.966       .  S
O695       Zr698   2.403       .  S
O695        H732   0.965       .  S
O696       Zr699   2.387       .  S
O696       Zr715   2.391       .  S
Zr697       O722   2.442       .  S
Zr697       O716   2.434       .  S
Zr697       O724   2.447       .  S
Zr697       O712   2.450       .  S
Zr697       O703   2.394       .  S
Zr697       O704   2.406       .  S
Zr697       O705   2.380       .  S
Zr697       O706   2.389       .  S
Zr698       O717   2.436       .  S
Zr698       O710   2.436       .  S
Zr698       O711   2.448       .  S
Zr699       O701   2.435       .  S
Zr699       O723   2.440       .  S
Zr699       O725   2.417       .  S
Zr699       O703   2.398       .  S
Zr699       O706   2.395       .  S
Zr700       O726   2.436       .  S
Zr700       O727   2.434       .  S
Zr700       O702   2.436       .  S
Zr700       O703   2.382       .  S
Zr700       O704   2.389       .  S
O701        H738   0.990       .  S
O702        H733   0.990       .  S
O704        H730   0.965       .  S
O705       Zr715   2.374       .  S
O706       Zr715   2.387       .  S
O706        H731   0.965       .  S
C707        C866   1.466   1_554  S
C708        C882   1.473       .  S
C709        C894   1.470       .  S
O710        H746   0.990       .  S
O712        C713   1.286       .  A
C713        C845   1.478       .  S
O714        H743   0.991       .  S
Zr715       O719   2.440       .  S
Zr715       O720   2.404       .  S
O716        C721   1.283       .  A
O717        H734   0.990       .  S
O717        H749   0.990       .  S
O718        H735   0.990       .  S
O719        H739   0.990       .  S
O719        H748   0.989       .  S
O720        C721   1.280       .  A
C721        C829   1.473       .  S
O722        H741   0.991       .  S
O722        H745   0.990       .  S
O723        H737   0.991       .  S
O723        H744   0.990       .  S
O724        C728   1.289       .  A
O725        C728   1.279       .  A
O726        H736   0.990       .  S
O727        H740   0.990       .  S
C728        C822   1.477       .  S
Zr751       O752   2.440       .  S
Zr751       O753   2.466       .  S
Zr751       O754   2.463       .  S
Zr751       O757   2.474       .  S
Zr751       O759   2.391       .  S
Zr751       O760   2.383       .  S
Zr751       O761   2.419       .  S
Zr751       O762   2.405       .  S
O752        H808   0.990       .  S
O752        H816   0.990       .  S
O753        C773   1.289       .  A
O754        C775   1.289       .  A
O755       Zr765   2.431       .  S
O755        C774   1.283       .  A
O756      Zr1676   2.434       .  S
O756        C775   1.285       .  A
O757        C774   1.291       .  A
O758       Zr766   2.401       .  S
O758        C773   1.277       .  A
O759      Zr1676   2.411       .  S
O759       Zr766   2.383       .  S
O760       Zr765   2.390       .  S
O760       Zr766   2.377       .  S
O760        H795   0.966       .  S
O761      Zr1676   2.410       .  S
O761       Zr781   2.399       .  S
O761        H798   0.965       .  S
O762       Zr765   2.390       .  S
O762       Zr781   2.397       .  S
Zr763       O788   2.441       .  S
Zr763       O782   2.448       .  S
Zr763       O790   2.463       .  S
Zr763       O778   2.475       .  S
Zr763      O1681   2.396   1_545  S
Zr763       O770   2.409       .  S
Zr763       O771   2.387       .  S
Zr763      O1684   2.397   1_545  S
Zr764       O783   2.438       .  S
Zr764       O776   2.435       .  S
Zr764      O1668   2.457   1_545  S
Zr764       O777   2.444       .  S
Zr764      O1671   2.400   1_545  S
Zr764      O1673   2.399   1_545  S
Zr764       O770   2.407       .  S
Zr764       O771   2.399       .  S
Zr765       O767   2.438       .  S
Zr765       O789   2.439       .  S
Zr765       O791   2.427       .  S
Zr765       O769   2.396       .  S
Zr765       O772   2.395       .  S
Zr766       O792   2.436       .  S
Zr766      O1705   2.435       .  S
Zr766      O1680   2.437       .  S
Zr766       O769   2.392       .  S
Zr766      O1682   2.381       .  S
O767        H804   0.990       .  S
O768      Zr1678   2.436   1_545  S
O768        H799   0.990       .  S
O768        H813   0.990       .  S
O769      Zr1675   2.405       .  S
O770      Zr1678   2.381   1_545  S
O770        H796   0.965       .  S
O771      Zr1693   2.380   1_545  S
O772      Zr1675   2.384       .  S
O772       Zr781   2.382       .  S
O772        H797   0.966       .  S
C773        C874   1.481       .  S
C774        C898   1.487       .  S
C775        C909   1.482       .  S
O776        H812   0.990       .  S
O777        C779   1.286       .  A
O778        C779   1.290       .  A
C779        C825   1.485       .  S
O780       Zr781   2.440       .  S
O780        H809   0.990       .  S
Zr781       O784   2.438       .  S
Zr781       O785   2.439       .  S
Zr781       O786   2.430       .  S
Zr781      O1683   2.386       .  S
O782        C787   1.286   1_545  A
O783        H800   0.990       .  S
O783        H815   0.990       .  S
O784        H801   0.990       .  S
O785        H805   0.990       .  S
O785        H814   0.990       .  S
O786       C1699   1.282       .  A
C787       O1698   1.282       .  A
C787        C834   1.480   1_565  S
O788        H807   0.991       .  S
O788        H811   0.990       .  S
O789        H803   0.990       .  S
O789        H810   0.990       .  S
O790       C1706   1.289   1_545  A
O791        C794   1.283       .  A
O792        H802   0.990       .  S
O793      Zr1678   2.435   1_545  S
O793        H806   0.990       .  S
C794       O1702   1.280       .  A
C794        C858   1.465       .  S
C817        H819   1.086       .  S
C817        C818   1.343       .  D
C818        H820   1.087       .  S
C821        H823   1.088       .  S
C821        C822   1.341       .  D
C822        H824   1.086       .  S
C825        H827   1.086       .  S
C825        C826   1.353       .  D
C826        H828   1.086       .  S
C829        H831   1.087       .  S
C829        C830   1.345       .  D
C830        H832   1.087       .  S
C833        H835   1.086       .  S
C833        C834   1.350   1_565  D
C834        H836   1.087       .  S
C837        H839   1.086       .  S
C837       C1750   1.345       .  D
C838        H840   1.087       .  S
C838       C1749   1.343       .  D
C841       H2667   1.086       .  S
C841        C842   1.350       .  D
C842        H844   1.087       .  S
H843       C2665   1.086       .  S
C845        H847   1.087       .  S
C845        C846   1.345       .  D
C846        H848   1.086       .  S
C849       H2675   1.087       .  S
C849        C850   1.343       .  D
C850        H852   1.087       .  S
H851       C2673   1.087       .  S
C853        H855   1.086       .  S
C853        C854   1.350       .  D
C854        H856   1.086       .  S
C857       H1771   1.086       .  S
C857        C858   1.342       .  D
C858        H860   1.088       .  S
H859       C1769   1.086       .  S
C861       H1775   1.087       .  S
C861        C862   1.339       .  D
C862        H864   1.088       .  S
H863       C1773   1.086   1_545  S
C865        H867   1.087       .  S
C865        C866   1.345   1_554  D
C866        H868   1.087       .  S
C869        H871   1.087       .  S
C869        C870   1.340       .  D
C870        H872   1.087       .  S
C873        H875   1.086       .  S
C873        C874   1.355       .  D
C874        H876   1.086       .  S
C877        H879   1.086       .  S
C877        C878   1.351       .  D
C878        H880   1.086       .  S
C881        H883   1.086       .  S
C881        C882   1.343       .  D
C885        H887   1.087       .  S
C885        C886   1.345   1_554  D
C886        H888   1.087       .  S
C889        H891   1.087       .  S
C889        C890   1.345       .  D
C890        H892   1.087       .  S
C893        H895   1.086       .  S
C893        C894   1.343       .  D
C894        H896   1.088       .  S
C897        H899   1.086       .  S
C897        C898   1.353       .  D
C898        H900   1.085       .  S
C901        H903   1.085       .  S
C901        C902   1.351       .  D
C902        H904   1.087       .  S
C905        H907   1.087       .  S
C905        C906   1.345       .  D
C906        H908   1.088       .  S
C909        H911   1.087       .  S
C909        C910   1.350       .  D
C910        H912   1.086       .  S
C913        C914   1.528       .  S
C913        C919   1.525       .  S
C913        C917   1.535       .  S
C913       C1361   1.507       .  S
C914        H921   1.082       .  S
C914        C915   1.373       .  D
C915        C916   1.561       .  S
C915        C966   1.504       .  S
C916        C920   1.552       .  S
C916        C918   1.538       .  S
C916        H922   1.108       .  S
C917        H923   1.087       .  S
C917        C918   1.362       .  D
C918       C1366   1.482       .  S
C919        H924   1.086       .  S
C919        C920   1.363       .  D
C920       C1357   1.490       .  S
C925        C926   1.536       .  S
C925        C931   1.530       .  S
C925        C929   1.537       .  S
C925       C1349   1.509       .  S
C926        H933   1.083       .  S
C926        C927   1.374       .  D
C927        C928   1.561       .  S
C927       C1002   1.508       .  S
C928        C932   1.550       .  S
C928        C930   1.531       .  S
C928        H934   1.106       .  S
C929        H935   1.087       .  S
C929        C930   1.360       .  D
C930       C1345   1.478       .  S
C931        H936   1.086       .  S
C931        C932   1.366       .  D
C932       C1353   1.493       .  S
C937        C938   1.530       .  S
C937        C943   1.528       .  S
C937       C1397   1.529       .  S
C937       C1341   1.495       .  S
C938       H1401   1.086       .  S
C938        C939   1.366       .  D
C939        C940   1.542       .  S
C939       C1793   1.481       .  S
C940        C944   1.546       .  S
C940       C1398   1.565       .  S
C940        H946   1.106       .  S
C941       C1393   1.527       .  S
C941        H947   1.082       .  S
C941        C942   1.364       .  D
C942       C1396   1.560   1_554  S
C942        C975   1.497       .  S
C943        H948   1.086       .  S
C943        C944   1.360       .  D
C944       C1333   1.490       .  S
H945       C1394   1.086       .  S
C949       C1406   1.534       .  S
C949        C955   1.531       .  S
C949       C1409   1.531       .  S
C949       C1321   1.497       .  S
C950       C1405   1.533   1_554  S
C950        H957   1.086       .  S
C950       C1407   1.366   1_554  D
C951        C952   1.535       .  S
C951       C1406   1.366       .  D
C951       C1781   1.473       .  S
C952        C956   1.539       .  S
C952       C1410   1.559       .  S
C952        H958   1.107       .  S
C953       C1405   1.530   1_554  S
C953        H959   1.083       .  S
C953        C954   1.365       .  D
C954       C1408   1.562   1_554  S
C954        C987   1.503       .  S
C955        H960   1.086       .  S
C955        C956   1.361       .  D
C956       C1329   1.484       .  S
C961       C2786   1.525       .  S
C961        C965   1.536       .  S
C961       C1318   1.500       .  S
C962       C2785   1.526   1_455  S
C962        H969   1.087       .  S
C962        C963   1.356   1_565  D
C963       C1876   1.531   1_455  S
C963       C1313   1.471   1_545  S
C964       C1875   1.534       .  S
C964        C968   1.555       .  S
C964        H970   1.107       .  S
C965        H971   1.083       .  S
C965        C966   1.375       .  D
C967        H972   1.086       .  S
C967        C968   1.365       .  D
C968       C1309   1.493       .  S
C973        C974   1.531       .  S
C973        C979   1.531       .  S
C973       C2801   1.535       .  S
C973       C1305   1.499       .  S
C974        H981   1.082       .  S
C974        C975   1.364       .  D
C975       C2800   1.558       .  S
C976       C2799   1.558       .  S
C976       C2804   1.544       .  S
C976        C978   1.542   1_655  S
C976        H982   1.106       .  S
C977       C2797   1.536   1_455  S
C977        H983   1.086       .  S
C977        C978   1.367       .  D
C978       C1302   1.484       .  S
C979        H984   1.086       .  S
C979        C980   1.361       .  D
C980       C2800   1.541       .  S
C980       C1297   1.486       .  S
C985        C986   1.528       .  S
C985        C991   1.529       .  S
C985        C989   1.531       .  S
C985       C1286   1.501       .  S
C986        H993   1.082       .  S
C987        C988   1.565       .  S
C988        H994   1.107       .  S
C989        H995   1.086       .  S
C989        C990   1.367       .  D
C990       C1293   1.483       .  S
C991        H996   1.086       .  S
C991        C992   1.361       .  D
C992       C1289   1.495       .  S
C997        C998   1.534       .  S
C997       C1003   1.524       .  S
C997       C1001   1.529       .  S
C997       C1277   1.507       .  S
C998       H1005   1.087       .  S
C998        C999   1.362       .  D
C999       C1000   1.539       .  S
C999       C1273   1.483       .  S
C1000      C1004   1.554       .  S
C1000      C1002   1.564       .  S
C1000      H1006   1.107       .  S
C1001      H1007   1.082       .  S
C1001      C1002   1.373       .  D
C1003      H1008   1.086       .  S
C1003      C1004   1.362       .  D
C1004      C1282   1.492       .  S
Zr1009     O1010   2.441       .  S
Zr1009     O1011   2.425       .  S
Zr1009     O1012   2.409       .  S
Zr1009     O1471   2.420       .  S
Zr1009     O1017   2.383       .  S
Zr1009     O1474   2.375       .  S
Zr1009     O1019   2.403       .  S
Zr1009     O1476   2.397       .  S
O1010      H1066   0.991       .  S
O1010      H1074   0.990       .  S
O1011      C1031   1.281       .  A
O1012      C1033   1.279       .  A
O1013     Zr1023   2.429       .  S
O1013      C1032   1.282       .  A
O1014     Zr1022   2.439       .  S
O1014      C1033   1.285       .  A
O1015     Zr1465   2.430       .  S
O1015      C1032   1.284   1_556  A
O1016     Zr1024   2.411       .  S
O1016      C1487   1.282   1_554  A
O1017     Zr1022   2.393       .  S
O1017     Zr1480   2.377       .  S
O1018     Zr1465   2.379   1_554  S
O1018     Zr1023   2.373       .  S
O1018     Zr1024   2.377       .  S
O1018      H1053   0.964       .  S
O1019     Zr1022   2.404       .  S
O1019      H1056   0.966       .  S
O1020     Zr1465   2.396   1_554  S
O1020     Zr1023   2.386       .  S
Zr1021     O2870   2.443       .  S
Zr1021     O2860   2.430       .  S
Zr1021     O1027   2.397       .  S
Zr1021     O1028   2.406       .  S
Zr1022     O1953   2.438   1_565  S
Zr1022     O2858   2.434       .  S
Zr1022     O2859   2.440       .  S
Zr1022     O1484   2.402       .  S
Zr1023     O1047   2.440       .  S
Zr1023     O1049   2.395       .  S
Zr1023     O1027   2.401       .  S
Zr1024     O1050   2.437       .  S
Zr1024     O2875   2.436       .  S
Zr1024     O2850   2.438       .  S
Zr1024     O1473   2.382   1_554  S
Zr1024     O1027   2.392       .  S
Zr1024     O1028   2.392       .  S
O1025      H1062   0.990       .  S
O1026     Zr2848   2.438   1_455  S
O1026      H1057   0.990       .  S
O1026      H1527   0.990   1_554  S
O1028     Zr1478   2.398   1_554  S
O1028      H2878   0.965       .  S
O1029     Zr1039   2.370       .  S
O1030     Zr1039   2.383       .  S
O1030      H1055   0.965       .  S
C1031      O1472   1.281       .  A
C1031      C1342   1.466       .  S
C1032      C1326   1.470       .  S
C1033      C1362   1.462       .  S
O1034     Zr2846   2.436       .  S
O1034      H1070   0.990       .  S
O1035     Zr2846   2.438       .  S
O1035      C1493   1.285       .  A
O1036     Zr2845   2.441   1_455  S
O1036      C1037   1.285       .  A
C1037      O1491   1.284   1_554  A
C1037      C1294   1.477   1_565  S
O1038     Zr1495   2.440       .  S
O1038      H1067   0.990       .  S
Zr1039     O1494   2.439   1_554  S
Zr1039     O1498   2.439   1_554  S
Zr1039     O1043   2.441       .  S
Zr1039     O1044   2.405       .  S
O1040      C1045   1.281       .  A
O1041     Zr1934   2.440   1_455  S
O1041      H2897   0.990       .  S
O1042     Zr1495   2.438       .  S
O1042      H1059   0.990       .  S
O1043      H1063   0.990       .  S
O1043      H1072   0.989       .  S
O1044      C1045   1.280       .  A
C1045      C1306   1.471       .  S
O1046     Zr2845   2.441   1_455  S
O1046      H1065   0.991       .  S
O1046      H1069   0.990   1_565  S
O1047      H1061   0.990       .  S
O1047      H1068   0.990       .  S
O1049      C1052   1.275       .  A
O1050      H1060   0.990       .  S
O1051     Zr2848   2.437   1_455  S
O1051      H1064   0.990       .  S
C1052      C1317   1.467       .  S
H1054      O2852   0.965       .  S
H1071      O1482   0.990       .  S
H1073      O2865   0.990       .  S
Zr1075     O2900   2.441       .  S
Zr1075     O2901   2.453       .  S
Zr1075     O1078   2.456       .  S
Zr1075     O2905   2.442       .  S
Zr1075     O1083   2.384       .  S
Zr1075     O1084   2.384       .  S
Zr1075     O1085   2.409       .  S
Zr1075     O2910   2.406       .  S
O1076     Zr2899   2.443       .  S
O1076      H1132   0.990       .  S
O1076      H1140   0.991       .  S
O1077     Zr2899   2.457   1_655  S
O1077      C2921   1.288       .  A
O1078      C1099   1.287       .  A
O1079     Zr2913   2.428       .  S
O1079      C1098   1.283       .  A
O1080     Zr1088   2.446       .  S
O1080      C1099   1.285       .  A
O1081     Zr2899   2.440       .  S
O1081      C1098   1.285       .  A
O1082     Zr1090   2.411       .  S
O1082      C1097   1.280       .  A
O1083     Zr1088   2.395       .  S
O1083     Zr1090   2.384       .  S
O1084     Zr1089   2.397       .  S
O1084     Zr1090   2.378       .  S
O1084      H2943   0.966       .  S
O1085     Zr1088   2.400       .  S
O1085     Zr1105   2.382       .  S
O1085      H1122   0.964       .  S
O1086     Zr2899   2.409       .  S
O1086     Zr2913   2.390       .  S
O1086     Zr2929   2.396   1_455  S
Zr1087     O1112   2.441       .  S
Zr1087     O1106   2.456       .  S
Zr1087     O1114   2.456       .  S
Zr1087     O1102   2.436       .  S
Zr1087     O1093   2.395       .  S
Zr1087     O1094   2.414       .  S
Zr1087     O1095   2.380       .  S
Zr1087     O1096   2.379       .  S
Zr1088     O1107   2.437       .  S
Zr1088     O1100   2.435       .  S
Zr1088     O1101   2.425       .  S
Zr1088     O1094   2.404       .  S
Zr1088     O1095   2.398       .  S
Zr1089     O2915   2.435       .  S
Zr1089     O2937   2.439       .  S
Zr1089     O2903   2.424       .  S
Zr1089     O1115   2.429       .  S
Zr1089     O2910   2.388       .  S
Zr1089     O1093   2.387       .  S
Zr1089     O1096   2.389       .  S
Zr1090     O1116   2.435       .  S
Zr1090     O1117   2.436       .  S
Zr1090     O1092   2.436       .  S
Zr1090     O1093   2.386       .  S
Zr1090     O1094   2.395       .  S
O1091     Zr2913   2.435       .  S
O1091      H1128   0.990       .  S
O1092      H1123   0.990       .  S
O1092      H1137   0.990       .  S
O1094      H1120   0.965       .  S
O1095     Zr1105   2.375       .  S
O1096     Zr1105   2.386       .  S
O1096      H1121   0.966       .  S
C1097      O2901   1.287       .  A
C1097      C1298   1.480       .  S
C1098      C1274   1.475       .  S
C1099      C1310   1.480       .  S
O1100      H1136   0.990       .  S
O1101      C1103   1.283       .  A
O1102      C1103   1.283       .  A
C1103      C1346   1.470       .  S
O1104     Zr2929   2.438   1_455  S
O1104      H1133   0.990       .  S
Zr1105     O2928   2.439       .  S
Zr1105     O1108   2.436       .  S
Zr1105     O2933   2.440       .  S
Zr1105     O1110   2.413       .  S
Zr1105     O2910   2.395       .  S
O1106      C1111   1.288       .  A
O1107      H1124   0.991       .  S
O1107      H1139   0.990       .  S
O1108      H1125   0.990       .  S
O1109     Zr2929   2.439   1_455  S
O1109      H1129   0.990       .  S
O1109      H1138   0.990       .  S
O1110      C1111   1.279       .  A
C1111      C1334   1.481       .  S
O1112      H1131   0.990       .  S
O1112      H1135   0.990       .  S
O1113     Zr2913   2.437       .  S
O1113      H1127   0.990       .  S
O1113      H1134   0.990       .  S
O1114      C1118   1.288       .  A
O1115      C1118   1.283       .  A
O1116      H1126   0.990       .  S
O1117      H1130   0.990       .  S
C1118      C1358   1.478       .  S
H1119      O2908   0.966       .  S
Zr1141     O1142   2.441       .  S
Zr1141     O1143   2.431       .  S
Zr1141     O1144   2.424       .  S
Zr1141     O1603   2.432       .  S
Zr1141     O1149   2.388       .  S
Zr1141     O1606   2.382       .  S
Zr1141     O1151   2.404       .  S
Zr1141     O1608   2.393       .  S
O1142      H1198   0.990       .  S
O1142      H1206   0.990       .  S
O1143      C1163   1.282       .  A
O1144      C1165   1.284       .  A
O1145     Zr1155   2.457       .  S
O1145      C1164   1.288       .  A
O1146     Zr1154   2.445       .  S
O1146      C1165   1.284       .  A
O1147     Zr1597   2.403   1_554  S
O1147      C1164   1.280       .  A
O1148     Zr1156   2.407       .  S
O1148      C1619   1.281   1_554  A
O1149     Zr1154   2.396       .  S
O1149     Zr1612   2.380       .  S
O1150     Zr1597   2.381   1_554  S
O1150     Zr1155   2.381       .  S
O1150     Zr1156   2.375       .  S
O1150      H1185   0.966       .  S
O1151     Zr1154   2.405       .  S
O1151     Zr1627   2.387       .  S
O1151      H1188   0.965       .  S
O1152     Zr1597   2.392   1_554  S
O1152     Zr1155   2.387       .  S
O1152     Zr1171   2.388       .  S
Zr1153     O1178   2.447       .  S
Zr1153     O1172   2.423       .  S
Zr1153     O1180   2.419       .  S
Zr1153     O1168   2.420       .  S
Zr1153     O1159   2.398       .  S
Zr1153     O1160   2.398       .  S
Zr1153     O1161   2.376       .  S
Zr1153     O1162   2.385       .  S
Zr1154     O1173   2.437       .  S
Zr1154     O1166   2.437       .  S
Zr1154     O1167   2.445       .  S
Zr1154     O1616   2.402       .  S
Zr1154     O1617   2.388       .  S
Zr1155     O1157   2.434       .  S
Zr1155     O1179   2.439       .  S
Zr1155     O1181   2.430       .  S
Zr1155     O1159   2.398       .  S
Zr1155     O1162   2.392       .  S
Zr1156     O1182   2.436       .  S
Zr1156     O1183   2.435       .  S
Zr1156     O1158   2.436       .  S
Zr1156     O1605   2.379   1_554  S
Zr1156     O1159   2.388       .  S
Zr1156     O1160   2.390       .  S
O1157      H1194   0.990       .  S
O1158      H1189   0.991       .  S
O1158      H1659   0.990   1_554  S
O1160     Zr1610   2.400   1_554  S
O1160      H1186   0.967       .  S
O1161     Zr1610   2.386   1_554  S
O1161     Zr1171   2.376       .  S
O1162     Zr1171   2.378       .  S
O1162      H1187   0.966       .  S
C1163      O1604   1.280       .  A
C1163      C1322   1.469       .  S
C1164      C1338   1.475       .  S
C1165      C1350   1.481       .  S
O1166      H1202   0.990       .  S
O1167      C1625   1.286       .  A
O1168      C1169   1.282       .  A
C1169      O1623   1.290   1_554  A
C1169      C1301   1.482       .  S
O1170     Zr1627   2.436       .  S
O1170      H1199   0.990       .  S
Zr1171     O1626   2.440   1_554  S
Zr1171     O1630   2.437   1_554  S
Zr1171     O1175   2.442       .  S
Zr1171     O1176   2.414       .  S
Zr1171     O1607   2.390   1_554  S
O1172      C1177   1.281       .  A
O1173      H1190   0.990       .  S
O1173      H1205   0.990       .  S
O1174     Zr1627   2.436       .  S
O1174      H1191   0.990       .  S
O1175      H1195   0.990       .  S
O1175      H1204   0.990       .  S
O1176      C1177   1.283       .  A
C1177      C1285   1.470       .  S
O1178      H1197   0.990       .  S
O1178      H1201   0.990       .  S
O1179      H1193   0.990       .  S
O1179      H1200   0.990       .  S
O1180      C1184   1.281       .  A
O1181      C1184   1.284       .  A
O1182      H1192   0.990       .  S
O1183      H1196   0.990       .  S
C1184      C1278   1.465       .  S
H1203      O1614   0.990       .  S
Zr1207     O1208   2.443       .  S
Zr1207     O1209   2.459       .  S
Zr1207     O1210   2.441       .  S
Zr1207     O1213   2.445       .  S
Zr1207     O1215   2.381       .  S
Zr1207     O1216   2.383       .  S
Zr1207     O1217   2.414       .  S
Zr1207     O1218   2.401       .  S
O1208      H1264   0.990       .  S
O1208      H1272   0.990       .  S
O1209      C1229   1.289       .  A
O1210      C1231   1.284       .  A
O1211     Zr1221   2.449       .  S
O1211      C1230   1.287       .  A
O1212      C1231   1.285       .  A
O1213      C1230   1.287       .  A
O1214     Zr1222   2.410   1_565  S
O1214      C1229   1.280       .  A
O1215     Zr1222   2.381   1_565  S
O1216     Zr1221   2.384       .  S
O1216     Zr1222   2.376   1_565  S
O1216      H1251   0.966       .  S
O1217     Zr1237   2.398       .  S
O1217      H1254   0.964       .  S
O1218     Zr1221   2.386       .  S
O1218     Zr1237   2.392       .  S
Zr1219     O1244   2.443       .  S
Zr1219     O1238   2.462       .  S
Zr1219     O1246   2.444       .  S
Zr1219     O1234   2.458       .  S
Zr1219     O1226   2.411       .  S
Zr1219     O1227   2.381       .  S
Zr1220     O1239   2.437       .  S
Zr1220     O1232   2.435       .  S
Zr1220     O1233   2.443       .  S
Zr1220     O1226   2.395       .  S
Zr1220     O1227   2.395       .  S
Zr1221     O1223   2.435       .  S
Zr1221     O1245   2.438       .  S
Zr1221     O1247   2.412       .  S
Zr1221     O1225   2.399       .  S
Zr1221     O1228   2.401       .  S
Zr1222     O1248   2.435   1_545  S
Zr1222     O1225   2.390   1_545  S
O1223      H1260   0.990       .  S
O1224      H1255   0.990       .  S
O1224      H1269   0.990       .  S
O1226      H1252   0.964       .  S
O1228     Zr1237   2.381       .  S
O1228      H1253   0.967       .  S
C1229      C1330   1.481       .  S
C1230      C1354   1.483       .  S
C1231      C1365   1.473       .  S
O1232      H1268   0.990       .  S
O1233      C1235   1.286       .  A
O1234      C1235   1.289       .  A
C1235      C1281   1.478       .  S
O1236     Zr1237   2.439       .  S
O1236      H1265   0.990       .  S
Zr1237     O1240   2.437       .  S
Zr1237     O1241   2.440       .  S
Zr1237     O1242   2.418       .  S
O1238      C1243   1.289       .  A
O1239      H1256   0.990       .  S
O1239      H1271   0.990       .  S
O1240      H1257   0.990       .  S
O1241      H1261   0.990       .  S
O1241      H1270   0.990       .  S
C1243      C1290   1.485       .  S
O1244      H1263   0.990       .  S
O1244      H1267   0.991       .  S
O1245      H1259   0.990       .  S
O1245      H1266   0.990       .  S
O1247      C1250   1.281   1_565  A
O1248      H1258   0.990       .  S
O1249      H1262   0.990       .  S
C1250      C1314   1.463       .  S
C1273      H1275   1.086       .  S
C1273      C1274   1.346       .  D
C1274      H1276   1.087       .  S
C1277      H1279   1.087       .  S
C1277      C1278   1.344       .  D
C1278      H1280   1.088       .  S
C1281      H1283   1.086       .  S
C1281      C1282   1.352       .  D
C1282      H1284   1.086       .  S
C1285      H1287   1.087       .  S
C1285      C1286   1.343       .  D
C1286      H1288   1.087       .  S
C1289      H1291   1.086       .  S
C1289      C1290   1.356       .  D
C1290      H1292   1.086       .  S
C1293      H1295   1.086       .  S
C1294      H1296   1.087   1_554  S
C1297      H3123   1.086       .  S
C1297      C1298   1.351       .  D
C1298      H1300   1.086       .  S
H1299      C3121   1.086       .  S
C1301      H1303   1.086   1_554  S
C1301      C1302   1.349       .  D
C1302      H1304   1.087       .  S
C1305      H3131   1.087       .  S
C1305      C1306   1.344       .  D
C1306      H1308   1.087       .  S
H1307      C3129   1.087       .  S
C1309      H1311   1.086       .  S
C1309      C1310   1.352       .  D
C1310      H1312   1.086       .  S
C1313      C1314   1.342   1_565  D
C1314      H1316   1.088       .  S
C1317      C1318   1.336       .  D
C1318      H1320   1.088       .  S
C1321      H1323   1.087       .  S
C1321      C1322   1.344       .  D
C1322      H1324   1.087       .  S
C1325      H1327   1.087   1_554  S
C1325      C1326   1.341       .  D
C1325      C1407   1.477   1_554  S
C1326      H1328   1.087       .  S
C1329      H1331   1.086       .  S
C1329      C1330   1.352       .  D
C1330      H1332   1.087       .  S
C1333      H1335   1.086       .  S
C1333      C1334   1.354       .  D
C1334      H1336   1.086       .  S
C1337      H1339   1.086   1_554  S
C1337      C1338   1.347       .  D
C1337      C1395   1.477       .  S
C1338      H1796   1.086       .  S
H1340      C1794   1.087       .  S
C1341      H1343   1.087       .  S
C1341      C1342   1.343       .  D
C1342      H1344   1.087       .  S
C1345      H1347   1.086       .  S
C1345      C1346   1.341       .  D
C1346      H1348   1.087       .  S
C1349      H1351   1.087       .  S
C1349      C1350   1.347       .  D
C1350      H1352   1.086       .  S
C1353      H1355   1.086       .  S
C1353      C1354   1.349       .  D
C1354      H1356   1.086       .  S
C1357      H1359   1.086       .  S
C1357      C1358   1.349       .  D
C1358      H1360   1.087       .  S
C1361      H1363   1.087       .  S
C1361      C1362   1.342       .  D
C1362      H1364   1.088       .  S
C1365      H1367   1.087       .  S
C1365      C1366   1.345       .  D
C1366      H1368   1.086       .  S
C1369      C1370   1.536       .  S
C1369      C1375   1.528       .  S
C1369      C1373   1.533       .  S
C1369      C1817   1.517       .  S
C1370      H1377   1.083       .  S
C1370      C1371   1.376       .  D
C1371      C1372   1.567       .  S
C1371      C1422   1.513       .  S
C1372      C1376   1.560       .  S
C1372      C1374   1.548       .  S
C1372      H1378   1.107       .  S
C1373      H1379   1.086       .  S
C1373      C1374   1.363       .  D
C1374      C1822   1.494       .  S
C1375      H1380   1.087       .  S
C1375      C1376   1.362       .  D
C1376      C1813   1.507       .  S
C1381      C1382   1.530       .  S
C1381      C1387   1.527       .  S
C1381      C1385   1.538       .  S
C1381      C1805   1.513       .  S
C1382      H1389   1.082       .  S
C1382      C1383   1.371       .  D
C1383      C1384   1.558       .  S
C1383      C1458   1.506       .  S
C1384      C1388   1.551       .  S
C1384      C1386   1.541       .  S
C1384      H1390   1.108       .  S
C1385      H1391   1.086       .  S
C1385      C1386   1.367       .  D
C1386      C1801   1.484       .  S
C1387      H1392   1.087       .  S
C1387      C1388   1.362       .  D
C1388      C1809   1.489       .  S
C1393      C1394   1.531       .  S
C1393      C1399   1.530   1_554  S
C1393      C1797   1.496       .  S
C1394      C1395   1.366       .  D
C1395      C1396   1.543   1_554  S
C1396      C1400   1.548       .  S
C1396      H1402   1.107       .  S
C1397      H1403   1.082       .  S
C1397      C1398   1.364       .  D
C1398      C1431   1.501       .  S
C1399      H1404   1.086       .  S
C1399      C1400   1.361       .  D
C1400      C1789   1.493       .  S
C1405      C1411   1.531       .  S
C1405      C1777   1.494   1_556  S
C1406      H1413   1.086       .  S
C1407      C1408   1.537       .  S
C1408      C1412   1.542       .  S
C1408      H1414   1.107       .  S
C1409      H1415   1.082       .  S
C1409      C1410   1.364       .  D
C1410      C1443   1.500       .  S
C1411      H1416   1.087       .  S
C1411      C1412   1.359       .  D
C1412      C1785   1.483       .  S
C1417      C3242   1.525       .  S
C1417      C1421   1.535       .  S
C1417      C1774   1.505       .  S
C1418      C3241   1.524   1_455  S
C1418      H1425   1.087       .  S
C1418      C1419   1.359   1_565  D
C1419      C2332   1.540   1_455  S
C1419      C1769   1.486       .  S
C1420      C2331   1.533       .  S
C1420      C1424   1.550       .  S
C1420      H1426   1.106       .  S
C1421      H1427   1.083       .  S
C1421      C1422   1.375       .  D
C1423      H1428   1.086       .  S
C1423      C1424   1.362       .  D
C1424      C1765   1.489       .  S
C1429      C1430   1.527       .  S
C1429      C1435   1.530       .  S
C1429      C3257   1.534       .  S
C1429      C1761   1.502       .  S
C1430      H1437   1.082       .  S
C1430      C1431   1.363       .  D
C1431      C3256   1.564       .  S
C1432      C3255   1.564       .  S
C1432      C3260   1.548       .  S
C1432      C1434   1.543   1_655  S
C1432      H1438   1.107       .  S
C1433      C3253   1.535   1_455  S
C1433      H1439   1.086       .  S
C1433      C1434   1.367       .  D
C1434      C1758   1.486       .  S
C1435      H1440   1.086       .  S
C1435      C1436   1.362       .  D
C1436      C3256   1.546       .  S
C1436      C1753   1.493       .  S
C1441      C1442   1.531       .  S
C1441      C1447   1.530       .  S
C1441      C1445   1.532       .  S
C1441      C1742   1.503       .  S
C1442      H1449   1.082       .  S
C1443      C1444   1.560       .  S
C1444      H1450   1.107       .  S
C1445      H1451   1.086       .  S
C1445      C1446   1.367       .  D
C1446      C1749   1.481       .  S
C1447      H1452   1.086       .  S
C1447      C1448   1.363       .  D
C1448      C1745   1.494       .  S
C1453      C1454   1.529       .  S
C1453      C1459   1.529       .  S
C1453      C1457   1.539       .  S
C1453      C1733   1.507       .  S
C1454      H1461   1.087       .  S
C1454      C1455   1.360       .  D
C1455      C1456   1.538       .  S
C1455      C1729   1.487       .  S
C1456      C1460   1.554       .  S
C1456      C1458   1.561       .  S
C1456      H1462   1.106       .  S
C1457      H1463   1.084       .  S
C1457      C1458   1.376       .  D
C1459      H1464   1.086       .  S
C1459      C1460   1.362       .  D
C1460      C1738   1.494       .  S
Zr1465     O1466   2.440       .  S
Zr1465     O1467   2.425       .  S
Zr1465     O1468   2.426       .  S
Zr1465     O1473   2.389       .  S
Zr1465     O1475   2.402       .  S
O1466      H1522   0.990       .  S
O1466      H1530   0.990       .  S
O1467      C1487   1.281       .  A
O1468      C1489   1.283       .  A
O1469     Zr1479   2.434       .  S
O1469      C1488   1.283       .  A
O1470     Zr1478   2.446       .  S
O1470      C1489   1.285       .  A
O1471      C1488   1.283       .  A
O1472     Zr1480   2.403       .  S
O1473     Zr1478   2.397       .  S
O1474     Zr1479   2.375       .  S
O1474     Zr1480   2.374       .  S
O1474      H1509   0.965       .  S
O1475     Zr1478   2.401       .  S
O1475      H1512   0.966       .  S
O1476     Zr1479   2.387       .  S
Zr1477     O3326   2.442       .  S
Zr1477     O3316   2.441       .  S
Zr1477     O1483   2.391       .  S
Zr1477     O1484   2.401       .  S
Zr1478     O2409   2.438       .  S
Zr1478     O3314   2.436       .  S
Zr1478     O3315   2.450       .  S
Zr1479     O1503   2.439       .  S
Zr1479     O1505   2.406       .  S
Zr1479     O1483   2.398       .  S
Zr1480     O1506   2.437       .  S
Zr1480     O3331   2.435       .  S
Zr1480     O3306   2.436       .  S
Zr1480     O1483   2.381       .  S
Zr1480     O1484   2.389       .  S
O1481      H1518   0.990       .  S
O1482     Zr3304   2.438   1_455  S
O1482      H1513   0.990       .  S
O1484      H3334   0.966       .  S
O1485     Zr1495   2.369       .  S
O1486     Zr1495   2.386       .  S
O1486      H1511   0.965       .  S
C1487      C1798   1.468       .  S
C1488      C1782   1.469       .  S
C1489      C1818   1.472       .  S
O1490     Zr3302   2.435       .  S
O1490      H1526   0.990       .  S
O1491     Zr3302   2.434       .  S
O1492     Zr3301   2.444   1_455  S
O1492      C1493   1.285       .  A
C1493      C1750   1.479       .  S
O1494      H1523   0.990       .  S
Zr1495     O1499   2.440       .  S
Zr1495     O1500   2.407       .  S
O1496      C1501   1.281       .  A
O1497     Zr2390   2.438   1_455  S
O1497      H3353   0.990   1_455  S
O1498      H1515   0.990       .  S
O1499      H1519   0.990       .  S
O1499      H1528   0.989       .  S
O1500      C1501   1.281       .  A
C1501      C1762   1.471       .  S
O1502     Zr3301   2.442   1_455  S
O1502      H1521   0.990       .  S
O1502      H1525   0.990   1_565  S
O1503      H1517   0.990       .  S
O1503      H1524   0.990       .  S
O1505      C1508   1.277       .  A
O1506      H1516   0.990       .  S
O1507     Zr3304   2.436   1_455  S
O1507      H1520   0.990       .  S
C1508      C1773   1.473       .  S
H1510      O3308   0.966       .  S
H1529      O3321   0.990       .  S
Zr1531     O3356   2.445       .  S
Zr1531     O3357   2.448       .  S
Zr1531     O1534   2.448       .  S
Zr1531     O3361   2.409       .  S
Zr1531     O1539   2.376       .  S
Zr1531     O1540   2.386       .  S
Zr1531     O1541   2.403       .  S
Zr1531     O3366   2.407       .  S
O1532     Zr3355   2.443   1_455  S
O1532      H1588   0.990       .  S
O1532      H1596   0.990       .  S
O1533     Zr3355   2.454       .  S
O1533      C3377   1.287       .  A
O1534      C1555   1.284       .  A
O1535     Zr3369   2.453   1_455  S
O1535      C1554   1.288       .  A
O1536     Zr1544   2.442       .  S
O1536      C1555   1.284       .  A
O1537     Zr3355   2.409   1_455  S
O1537      C1554   1.279       .  A
O1538     Zr1546   2.425       .  S
O1538      C1553   1.281       .  A
O1539     Zr1544   2.398       .  S
O1539     Zr1546   2.387       .  S
O1540     Zr1545   2.403       .  S
O1540     Zr1546   2.377       .  S
O1540      H3399   0.966       .  S
O1541     Zr1544   2.400       .  S
O1541     Zr1561   2.394       .  S
O1541      H1578   0.965       .  S
O1542     Zr3355   2.408   1_455  S
O1542     Zr3369   2.398   1_455  S
O1542     Zr3385   2.395   1_455  S
Zr1543     O1568   2.446       .  S
Zr1543     O1562   2.450       .  S
Zr1543     O1570   2.446       .  S
Zr1543     O1558   2.448       .  S
Zr1543     O1549   2.401       .  S
Zr1543     O1550   2.408       .  S
Zr1543     O1551   2.376       .  S
Zr1543     O1552   2.381       .  S
Zr1544     O1563   2.435       .  S
Zr1544     O1556   2.436       .  S
Zr1544     O1557   2.429       .  S
Zr1544     O1550   2.400       .  S
Zr1544     O1551   2.397       .  S
Zr1545     O3371   2.435       .  S
Zr1545     O3393   2.439       .  S
Zr1545     O3359   2.461       .  S
Zr1545     O1571   2.473       .  S
Zr1545     O3366   2.400       .  S
Zr1545     O1549   2.393       .  S
Zr1545     O1552   2.398       .  S
Zr1546     O1572   2.435       .  S
Zr1546     O1573   2.436       .  S
Zr1546     O1548   2.437       .  S
Zr1546     O1549   2.392       .  S
Zr1546     O1550   2.397       .  S
O1547     Zr3369   2.438   1_455  S
O1547      H1584   0.990       .  S
O1548      H1579   0.990       .  S
O1548      H1593   0.990       .  S
O1550      H1576   0.967       .  S
O1551     Zr1561   2.375       .  S
O1552     Zr1561   2.380       .  S
O1552      H1577   0.966       .  S
C1553      O3357   1.285       .  A
C1553      C1754   1.480       .  S
C1554      C1730   1.468       .  S
C1555      C1766   1.477       .  S
O1556      H1592   0.990       .  S
O1557      C1559   1.284       .  A
O1558      C1559   1.286       .  A
C1559      C1802   1.476       .  S
O1560     Zr3385   2.439   1_455  S
O1560      H1589   0.990       .  S
Zr1561     O3384   2.440       .  S
Zr1561     O1564   2.437       .  S
Zr1561     O3389   2.440       .  S
Zr1561     O1566   2.431       .  S
Zr1561     O3366   2.396       .  S
O1562      C1567   1.288       .  A
O1563      H1580   0.990       .  S
O1563      H1595   0.990       .  S
O1564      H1581   0.990       .  S
O1565     Zr3385   2.440   1_455  S
O1565      H1585   0.990       .  S
O1565      H1594   0.990       .  S
O1566      C1567   1.283       .  A
C1567      C1790   1.484       .  S
O1568      H1587   0.991       .  S
O1568      H1591   0.990       .  S
O1569     Zr3369   2.437   1_455  S
O1569      H1583   0.990       .  S
O1569      H1590   0.990       .  S
O1570      C1574   1.288       .  A
O1571      C1574   1.291       .  A
O1572      H1582   0.990       .  S
O1573      H1586   0.990       .  S
C1574      C1814   1.492       .  S
H1575      O3364   0.966       .  S
Zr1597     O1598   2.441       .  S
Zr1597     O1599   2.413       .  S
Zr1597     O1600   2.406       .  S
Zr1597     O1605   2.381       .  S
Zr1597     O1607   2.396       .  S
O1598      H1654   0.991       .  S
O1598      H1662   0.990       .  S
O1599      C1619   1.279       .  A
O1600      C1621   1.277       .  A
O1601     Zr1611   2.436       .  S
O1601      C1620   1.283       .  A
O1602     Zr1610   2.452       .  S
O1602      C1621   1.288       .  A
O1603      C1620   1.284       .  A
O1604     Zr1612   2.398       .  S
O1605     Zr1610   2.396       .  S
O1606     Zr1611   2.382       .  S
O1606     Zr1612   2.382       .  S
O1606      H1641   0.967       .  S
O1607     Zr1610   2.402       .  S
O1607      H1644   0.966       .  S
O1608     Zr1611   2.384       .  S
O1608     Zr1627   2.391       .  S
Zr1609     O1634   2.440       .  S
Zr1609     O1628   2.432       .  S
Zr1609     O1636   2.441       .  S
Zr1609     O1624   2.444       .  S
Zr1609     O1615   2.394       .  S
Zr1609     O1616   2.403       .  S
Zr1609     O1617   2.379       .  S
Zr1609     O1618   2.388       .  S
Zr1610     O1629   2.436       .  S
Zr1610     O1622   2.434       .  S
Zr1610     O1623   2.462       .  S
Zr1611     O1613   2.434       .  S
Zr1611     O1635   2.440       .  S
Zr1611     O1637   2.413       .  S
Zr1611     O1615   2.396       .  S
Zr1611     O1618   2.398       .  S
Zr1612     O1638   2.436       .  S
Zr1612     O1639   2.436       .  S
Zr1612     O1614   2.436       .  S
Zr1612     O1615   2.382       .  S
Zr1612     O1616   2.384       .  S
O1613      H1650   0.990       .  S
O1614      H1645   0.990       .  S
O1616      H1642   0.965       .  S
O1617     Zr1627   2.371       .  S
O1618     Zr1627   2.381       .  S
O1618      H1643   0.965       .  S
C1619      C1778   1.464       .  S
C1620      C1794   1.476       .  S
C1621      C1806   1.469       .  S
O1622      H1658   0.990       .  S
O1624      C1625   1.286       .  A
C1625      C1757   1.482       .  S
O1626      H1655   0.990       .  S
Zr1627     O1631   2.439       .  S
Zr1627     O1632   2.405       .  S
O1628      C1633   1.283       .  A
O1629      H1646   0.990       .  S
O1629      H1661   0.990       .  S
O1630      H1647   0.990       .  S
O1631      H1651   0.990       .  S
O1631      H1660   0.989       .  S
O1632      C1633   1.280       .  A
C1633      C1741   1.474       .  S
O1634      H1653   0.990       .  S
O1634      H1657   0.990       .  S
O1635      H1649   0.990       .  S
O1635      H1656   0.990       .  S
O1636      C1640   1.289       .  A
O1637      C1640   1.279       .  A
O1638      H1648   0.990       .  S
O1639      H1652   0.991       .  S
C1640      C1734   1.475       .  S
Zr1663     O1664   2.441       .  S
Zr1663     O1665   2.468       .  S
Zr1663     O1666   2.437       .  S
Zr1663     O1669   2.439       .  S
Zr1663     O1671   2.381       .  S
Zr1663     O1672   2.371       .  S
Zr1663     O1673   2.416       .  S
Zr1663     O1674   2.407       .  S
O1664      H1720   0.990       .  S
O1664      H1728   0.990       .  S
O1665      C1685   1.290       .  A
O1666      C1687   1.284       .  A
O1667     Zr1677   2.444       .  S
O1667      C1686   1.286       .  A
O1668      C1687   1.288       .  A
O1669      C1686   1.285       .  A
O1670     Zr1678   2.396       .  S
O1670      C1685   1.277       .  A
O1671     Zr1678   2.383       .  S
O1672     Zr1677   2.382       .  S
O1672     Zr1678   2.380       .  S
O1672      H1707   0.967       .  S
O1673     Zr1693   2.395       .  S
O1673      H1710   0.965       .  S
O1674     Zr1677   2.378       .  S
O1674     Zr1693   2.399       .  S
Zr1675     O1700   2.441       .  S
Zr1675     O1694   2.449       .  S
Zr1675     O1702   2.425       .  S
Zr1675     O1690   2.431       .  S
Zr1675     O1682   2.405       .  S
Zr1675     O1683   2.376       .  S
Zr1676     O1695   2.435       .  S
Zr1676     O1688   2.434       .  S
Zr1676     O1689   2.475       .  S
Zr1676     O1682   2.391       .  S
Zr1676     O1683   2.391       .  S
Zr1677     O1679   2.436       .  S
Zr1677     O1701   2.435       .  S
Zr1677     O1703   2.404       .  S
Zr1677     O1681   2.397       .  S
Zr1677     O1684   2.395       .  S
Zr1678     O1704   2.434       .  S
Zr1678     O1681   2.381       .  S
O1679      H1716   0.990       .  S
O1680      H1711   0.991       .  S
O1680      H1725   0.990       .  S
O1682      H1708   0.965       .  S
O1684     Zr1693   2.376       .  S
O1684      H1709   0.967       .  S
C1685      C1786   1.481       .  S
C1686      C1810   1.481       .  S
C1687      C1821   1.477       .  S
O1688      H1724   0.990       .  S
O1689      C1691   1.292       .  A
O1690      C1691   1.283       .  A
C1691      C1737   1.487       .  S
O1692     Zr1693   2.438       .  S
O1692      H1721   0.990       .  S
Zr1693     O1696   2.438       .  S
Zr1693     O1697   2.437       .  S
Zr1693     O1698   2.430       .  S
O1694      C1699   1.286       .  A
O1695      H1712   0.990       .  S
O1695      H1727   0.990       .  S
O1696      H1713   0.990       .  S
O1697      H1717   0.990       .  S
O1697      H1726   0.990       .  S
C1699      C1746   1.482       .  S
O1700      H1719   0.990       .  S
O1700      H1723   0.991       .  S
O1701      H1715   0.990       .  S
O1701      H1722   0.990       .  S
O1703      C1706   1.278       .  A
O1704      H1714   0.990       .  S
O1705      H1718   0.990       .  S
C1706      C1770   1.465       .  S
C1729      H1731   1.086       .  S
C1729      C1730   1.343       .  D
C1730      H1732   1.087       .  S
C1733      H1735   1.088       .  S
C1733      C1734   1.340       .  D
C1734      H1736   1.086       .  S
C1737      H1739   1.086       .  S
C1737      C1738   1.356       .  D
C1738      H1740   1.086       .  S
C1741      H1743   1.087       .  S
C1741      C1742   1.346       .  D
C1742      H1744   1.087       .  S
C1745      H1747   1.086       .  S
C1745      C1746   1.352       .  D
C1746      H1748   1.086       .  S
C1749      H1751   1.086       .  S
C1750      H1752   1.087   1_565  S
C1753      H3579   1.086       .  S
C1753      C1754   1.352       .  D
C1754      H1756   1.086       .  S
H1755      C3577   1.086       .  S
C1757      H1759   1.087       .  S
C1757      C1758   1.347       .  D
C1758      H1760   1.086       .  S
C1761      H3587   1.087       .  S
C1761      C1762   1.343       .  D
C1762      H1764   1.087       .  S
H1763      C3585   1.087       .  S
C1765      H1767   1.086       .  S
C1765      C1766   1.350       .  D
C1766      H1768   1.086       .  S
C1769      C1770   1.344   1_545  D
C1770      H1772   1.087       .  S
C1773      C1774   1.338       .  D
C1774      H1776   1.088       .  S
C1777      H1779   1.087       .  S
C1777      C1778   1.341   1_554  D
C1778      H1780   1.087       .  S
C1781      H1783   1.087       .  S
C1781      C1782   1.339       .  D
C1782      H1784   1.087       .  S
C1785      H1787   1.086       .  S
C1785      C1786   1.354       .  D
C1786      H1788   1.087       .  S
C1789      H1791   1.086       .  S
C1789      C1790   1.354       .  D
C1790      H1792   1.086       .  S
C1793      H1795   1.086       .  S
C1793      C1794   1.345       .  D
C1797      H1799   1.087       .  S
C1797      C1798   1.342   1_554  D
C1798      H1800   1.087       .  S
C1801      H1803   1.086       .  S
C1801      C1802   1.347       .  D
C1802      H1804   1.086       .  S
C1805      H1807   1.087       .  S
C1805      C1806   1.341       .  D
C1806      H1808   1.088       .  S
C1809      H1811   1.085       .  S
C1809      C1810   1.351       .  D
C1810      H1812   1.088       .  S
C1813      H1815   1.085       .  S
C1813      C1814   1.358       .  D
C1814      H1816   1.087       .  S
C1817      H1819   1.086       .  S
C1817      C1818   1.350       .  D
C1818      H1820   1.088       .  S
C1821      H1823   1.086       .  S
C1821      C1822   1.351       .  D
C1822      H1824   1.086       .  S
C1825      C1826   1.532       .  S
C1825      C1831   1.525       .  S
C1825      C1829   1.533       .  S
C1825      C2273   1.512       .  S
C1826      H1833   1.082       .  S
C1826      C1827   1.375       .  D
C1827      C1828   1.568       .  S
C1827      C1878   1.513       .  S
C1828      C1832   1.556       .  S
C1828      C1830   1.545       .  S
C1828      H1834   1.107       .  S
C1829      H1835   1.087       .  S
C1829      C1830   1.361       .  D
C1830      C2278   1.487       .  S
C1831      H1836   1.086       .  S
C1831      C1832   1.364       .  D
C1832      C2269   1.502       .  S
C1837      C1838   1.538       .  S
C1837      C1843   1.531       .  S
C1837      C1841   1.527       .  S
C1837      C2261   1.514       .  S
C1838      H1845   1.083       .  S
C1838      C1839   1.379       .  D
C1839      C1840   1.564       .  S
C1839      C1914   1.515       .  S
C1840      C1844   1.553       .  S
C1840      C1842   1.533       .  S
C1840      H1846   1.107       .  S
C1841      H1847   1.086       .  S
C1841      C1842   1.356       .  D
C1842      C2257   1.477       .  S
C1843      H1848   1.086       .  S
C1843      C1844   1.368       .  D
C1844      C2265   1.497       .  S
C1849      C1850   1.532       .  S
C1849      C1855   1.526       .  S
C1849      C2309   1.528       .  S
C1849      C2253   1.495       .  S
C1850      H2313   1.086       .  S
C1850      C1851   1.366       .  D
C1851      C1852   1.541       .  S
C1851      C2705   1.481       .  S
C1852      C1856   1.544       .  S
C1852      C2310   1.564       .  S
C1852      H1858   1.107       .  S
C1853      C2305   1.530       .  S
C1853      H1859   1.082       .  S
C1853      C1854   1.365       .  D
C1854      C2308   1.561   1_554  S
C1854      C1887   1.499       .  S
C1855      H1860   1.086       .  S
C1855      C1856   1.360       .  D
C1856      C2245   1.486       .  S
H1857      C2306   1.086       .  S
C1861      C2318   1.534       .  S
C1861      C1867   1.530       .  S
C1861      C2321   1.529       .  S
C1861      C2233   1.494       .  S
C1862      C2317   1.532       .  S
C1862      H1869   1.086       .  S
C1862      C2319   1.365       .  D
C1863      C1864   1.535       .  S
C1863      C2318   1.366       .  D
C1863      C2693   1.475       .  S
C1864      C1868   1.539       .  S
C1864      C2322   1.560       .  S
C1864      H1870   1.107       .  S
C1865      C2317   1.528       .  S
C1865      H1871   1.082       .  S
C1865      C1866   1.365       .  D
C1866      C2320   1.561   1_554  S
C1866      C1899   1.500       .  S
C1867      H1872   1.086       .  S
C1867      C1868   1.360       .  D
C1868      C2241   1.480       .  S
C1873      C2791   1.528       .  S
C1873      C1877   1.535       .  S
C1873      C2230   1.505       .  S
C1874      H1881   1.087       .  S
C1874      C1875   1.358       .  D
C1875      C2225   1.475       .  S
C1876      C1880   1.546       .  S
C1876      C2790   1.561   1_545  S
C1876      H1882   1.107       .  S
C1877      H1883   1.083       .  S
C1877      C1878   1.374       .  D
C1878      C2788   1.567       .  S
C1879      C2785   1.529   1_545  S
C1879      H1884   1.086       .  S
C1879      C1880   1.364       .  D
C1880      C2221   1.485       .  S
C1885      C1886   1.529       .  S
C1885      C1891   1.532       .  S
C1885      C2217   1.506       .  S
C1886      H1893   1.082       .  S
C1886      C1887   1.363       .  D
C1888      C1890   1.543       .  S
C1888      H1894   1.106       .  S
C1889      H1895   1.086       .  S
C1889      C1890   1.370       .  D
C1890      C2214   1.490       .  S
C1891      H1896   1.086       .  S
C1891      C1892   1.363       .  D
C1892      C2209   1.490       .  S
C1897      C1898   1.526       .  S
C1897      C1903   1.530       .  S
C1897      C1901   1.536       .  S
C1897      C2198   1.498       .  S
C1898      H1905   1.082       .  S
C1898      C2811   1.363   1_545  D
C1899      C1900   1.561       .  S
C1899      C2810   1.366       .  D
C1900      C2816   1.546       .  S
C1900      C2814   1.542       .  S
C1900      H1906   1.107       .  S
C1901      H1907   1.086       .  S
C1901      C1902   1.369       .  D
C1902      C2812   1.542   1_545  S
C1902      C2205   1.484   1_545  S
C1903      H1908   1.086       .  S
C1903      C1904   1.358       .  D
C1904      C2812   1.546   1_545  S
C1904      C2201   1.491   1_545  S
C1909      C1910   1.521       .  S
C1909      C1915   1.527       .  S
C1909      C1913   1.537       .  S
C1909      C2189   1.504       .  S
C1910      H1917   1.087       .  S
C1910      C1911   1.356       .  D
C1911      C1912   1.538       .  S
C1911      C2185   1.475       .  S
C1912      C1916   1.557       .  S
C1912      C1914   1.566       .  S
C1912      H1918   1.107       .  S
C1913      H1919   1.083       .  S
C1913      C1914   1.378       .  D
C1915      H1920   1.086       .  S
C1915      C1916   1.362       .  D
C1916      C2194   1.494       .  S
Zr1921     O1922   2.440       .  S
Zr1921     O1923   2.431       .  S
Zr1921     O1924   2.429       .  S
Zr1921     O2383   2.434       .  S
Zr1921     O1929   2.384       .  S
Zr1921     O2386   2.378       .  S
Zr1921     O1931   2.405       .  S
Zr1921     O2388   2.398       .  S
O1922      H1978   0.990       .  S
O1922      H1986   0.990       .  S
O1923      C1943   1.282       .  A
O1924      C1945   1.283       .  A
O1925     Zr1935   2.430       .  S
O1925      C1944   1.282       .  A
O1926     Zr1934   2.434       .  S
O1926      C1945   1.283       .  A
O1927     Zr2377   2.425   1_554  S
O1927      C1944   1.284       .  A
O1928     Zr1936   2.403       .  S
O1928      C2399   1.280       .  A
O1929     Zr1934   2.392       .  S
O1929     Zr2392   2.378       .  S
O1930     Zr2377   2.379   1_554  S
O1930     Zr1935   2.382       .  S
O1930     Zr1936   2.376       .  S
O1930      H1965   0.966       .  S
O1931     Zr1934   2.403       .  S
O1931     Zr3319   2.384       .  S
O1931      H1968   0.966       .  S
O1932     Zr2377   2.394   1_554  S
O1932     Zr1935   2.381       .  S
O1932     Zr2863   2.391       .  S
Zr1933     O2864   2.426       .  S
Zr1933     O2872   2.443       .  S
Zr1933     O1939   2.390       .  S
Zr1933     O1940   2.405   1_655  S
Zr1933     O2853   2.382       .  S
Zr1933     O2854   2.383       .  S
Zr1934     O2396   2.402   1_655  S
Zr1934     O3309   2.389       .  S
Zr1935     O2849   2.434       .  S
Zr1935     O1959   2.438       .  S
Zr1935     O1961   2.406       .  S
Zr1935     O1939   2.397       .  S
Zr1935     O2854   2.393       .  S
Zr1936     O1962   2.436       .  S
Zr1936     O2385   2.382   1_554  S
Zr1936     O1939   2.383       .  S
Zr1936     O1940   2.385   1_655  S
O1937     Zr2847   2.433   1_545  S
O1937      H1974   0.990       .  S
O1938      H1969   0.990       .  S
O1938      H2439   0.990   1_554  S
O1940     Zr2390   2.405   1_454  S
O1941     Zr2845   2.381   1_545  S
O1941     Zr3302   2.383   1_644  S
O1941     Zr1951   2.371       .  S
O1942     Zr2845   2.388   1_545  S
O1942     Zr2847   2.394   1_545  S
O1942     Zr1951   2.381       .  S
O1942      H1967   0.967       .  S
C1943      O2384   1.279       .  A
C1943      C2254   1.467       .  S
C1944      C2238   1.469       .  S
C1945      C2274   1.466       .  S
O1946      H1982   0.990       .  S
O1947      C2405   1.284       .  A
O1948      C1949   1.283       .  A
C1949      O2403   1.286   1_554  A
C1949      C2206   1.477       .  S
O1950     Zr2407   2.439       .  S
O1950      H1979   0.990       .  S
Zr1951     O2406   2.441   1_554  S
Zr1951     O2410   2.435   1_554  S
Zr1951     O1955   2.440       .  S
Zr1951     O1956   2.419       .  S
Zr1951     O3299   2.391   1_544  S
Zr1951     O2844   2.395   1_545  S
O1952     Zr2845   2.425   1_545  S
O1952      C1957   1.282       .  A
O1953      H2882   0.990   1_545  S
O1954     Zr2407   2.439       .  S
O1954      H1971   0.990       .  S
O1955      H1975   0.990       .  S
O1955      H1984   0.989       .  S
O1956      C1957   1.284       .  A
C1957      C2218   1.475       .  S
O1958      H1977   0.990       .  S
O1958      H1981   0.990       .  S
O1959      H1973   0.990       .  S
O1959      H1980   0.990       .  S
O1960     Zr2845   2.448       .  S
O1960      C2876   1.291       .  A
O1961      C1964   1.277       .  A
O1962      H1972   0.990       .  S
O1963      H1976   0.990       .  S
C1964      O2872   1.288       .  A
C1964      C2229   1.472       .  S
H1970      O2865   0.990       .  S
H1983      O2394   0.990       .  S
Zr1987     O1990   2.456       .  S
Zr1987     O1995   2.374       .  S
Zr1987     O1996   2.394       .  S
Zr1987     O1997   2.402       .  S
O1988      H2044   0.991       .  S
O1988      H2052   0.991       .  S
O1990      C2011   1.287       .  A
O1991      C2010   1.286       .  A
O1992     Zr2000   2.429       .  S
O1992      C2011   1.282       .  A
O1993      C2010   1.281       .  A
O1994     Zr2002   2.429       .  S
O1994      C2009   1.282       .  A
O1995     Zr2000   2.395       .  S
O1995     Zr2002   2.383       .  S
O1996     Zr2001   2.404   1_655  S
O1996     Zr2002   2.376       .  S
O1997     Zr2000   2.399       .  S
O1997     Zr2017   2.388       .  S
O1997      H2034   0.965       .  S
Zr1999     O2024   2.448       .  S
Zr1999     O2018   2.450       .  S
Zr1999     O2026   2.428       .  S
Zr1999     O2014   2.420       .  S
Zr1999     O2005   2.401       .  S
Zr1999     O2006   2.411       .  S
Zr1999     O2007   2.373       .  S
Zr1999     O2008   2.375       .  S
Zr2000     O2019   2.435       .  S
Zr2000     O2012   2.434       .  S
Zr2000     O2013   2.423       .  S
Zr2000     O2006   2.398       .  S
Zr2000     O2007   2.390       .  S
Zr2001     O2027   2.468   1_455  S
Zr2001     O2005   2.383   1_455  S
Zr2001     O2008   2.389   1_455  S
Zr2002     O2028   2.434       .  S
Zr2002     O2029   2.435       .  S
Zr2002     O2004   2.437       .  S
Zr2002     O2005   2.396       .  S
Zr2002     O2006   2.400       .  S
O2003      H2040   0.990       .  S
O2004      H2035   0.990       .  S
O2004      H2049   0.990       .  S
O2006      H2032   0.966       .  S
O2007     Zr2017   2.376       .  S
O2008     Zr2017   2.382       .  S
O2008      H2033   0.966       .  S
C2009      C2210   1.479       .  S
C2010      C2186   1.465       .  S
C2011      C2222   1.474       .  S
O2012      H2048   0.990       .  S
O2013      C2015   1.283       .  A
O2014      C2015   1.281       .  A
C2015      C2258   1.458       .  S
O2016      H2045   0.991       .  S
Zr2017     O2020   2.436       .  S
Zr2017     O2022   2.413       .  S
O2018      C2023   1.287       .  A
O2019      H2036   0.990       .  S
O2019      H2051   0.990       .  S
O2020      H2037   0.990       .  S
O2021      H2041   0.990       .  S
O2021      H2050   0.990       .  S
O2022      C2023   1.280       .  A
C2023      C2246   1.477       .  S
O2024      H2043   0.990       .  S
O2024      H2047   0.990       .  S
O2025      H2039   0.990       .  S
O2025      H2046   0.990       .  S
O2026      C2030   1.283       .  A
O2027      C2030   1.289       .  A
O2028      H2038   0.990       .  S
O2029      H2042   0.990       .  S
C2030      C2270   1.481       .  S
Zr2053     O2054   2.442       .  S
Zr2053     O2055   2.429       .  S
Zr2053     O2056   2.449       .  S
Zr2053     O2515   2.438       .  S
Zr2053     O2061   2.384       .  S
Zr2053     O2518   2.384       .  S
Zr2053     O2063   2.401       .  S
Zr2053     O2520   2.403       .  S
O2054      H2110   0.990       .  S
O2054      H2118   0.990       .  S
O2055      C2075   1.281       .  A
O2056      C2077   1.289       .  A
O2057     Zr2067   2.434       .  S
O2057      C2076   1.282       .  A
O2058     Zr2066   2.426       .  S
O2058      C2077   1.280       .  A
O2059     Zr2509   2.417   1_554  S
O2059      C2076   1.281       .  A
O2060     Zr2068   2.395       .  S
O2060      C2531   1.279       .  A
O2061     Zr2066   2.395       .  S
O2061     Zr2524   2.381       .  S
O2062     Zr2509   2.374   1_554  S
O2062     Zr2067   2.384       .  S
O2062     Zr2068   2.385       .  S
O2062      H2097   0.966       .  S
O2063     Zr2066   2.403       .  S
O2063     Zr2539   2.389       .  S
O2063      H2100   0.966       .  S
O2064     Zr2509   2.393   1_554  S
O2064     Zr2067   2.377       .  S
O2064     Zr2083   2.389       .  S
Zr2065     O2090   2.443       .  S
Zr2065     O2084   2.418       .  S
Zr2065     O2092   2.459       .  S
Zr2065     O2080   2.452       .  S
Zr2065     O2071   2.387       .  S
Zr2065     O2072   2.404       .  S
Zr2065     O2073   2.382       .  S
Zr2065     O2074   2.394       .  S
Zr2066     O2085   2.438       .  S
Zr2066     O2078   2.435       .  S
Zr2066     O2079   2.425       .  S
Zr2066     O2528   2.401       .  S
Zr2066     O2529   2.387       .  S
Zr2067     O2069   2.435       .  S
Zr2067     O2091   2.438       .  S
Zr2067     O2093   2.392       .  S
Zr2067     O2071   2.402       .  S
Zr2067     O2074   2.398       .  S
Zr2068     O2094   2.435       .  S
Zr2068     O2095   2.436       .  S
Zr2068     O2070   2.438       .  S
Zr2068     O2517   2.377   1_554  S
Zr2068     O2071   2.378       .  S
Zr2068     O2072   2.387       .  S
O2069      H2106   0.990       .  S
O2070      H2101   0.990       .  S
O2070      H2571   0.990       .  S
O2072     Zr2522   2.412   1_554  S
O2072      H2098   0.966       .  S
O2073     Zr2522   2.386   1_554  S
O2073     Zr2083   2.369       .  S
O2074     Zr2083   2.387       .  S
O2074      H2099   0.965       .  S
C2075      O2516   1.279       .  A
C2075      C2234   1.466       .  S
C2076      C2250   1.469       .  S
C2077      C2262   1.483       .  S
O2078      H2114   0.990       .  S
O2079      C2537   1.282       .  A
O2080      C2081   1.287       .  A
C2081      O2535   1.287   1_554  A
C2081      C2213   1.485       .  S
O2082     Zr2539   2.438       .  S
O2082      H2111   0.990       .  S
Zr2083     O2538   2.441   1_554  S
Zr2083     O2542   2.435   1_554  S
Zr2083     O2087   2.444       .  S
Zr2083     O2088   2.408       .  S
Zr2083     O2519   2.394   1_554  S
O2084      C2089   1.280       .  A
O2085      H2102   0.990       .  S
O2085      H2117   0.990       .  S
O2086     Zr2539   2.437       .  S
O2086      H2103   0.990       .  S
O2087      H2107   0.990       .  S
O2087      H2116   0.989       .  S
O2088      C2089   1.281       .  A
C2089      C2197   1.465       .  S
O2090      H2109   0.990       .  S
O2090      H2113   0.990       .  S
O2091      H2105   0.990       .  S
O2091      H2112   0.990       .  S
O2092      C2096   1.292       .  A
O2093      C2096   1.275       .  A
O2094      H2104   0.990       .  S
O2095      H2108   0.990       .  S
C2096      C2190   1.470       .  S
H2115      O2526   0.990       .  S
Zr2119     O2120   2.442       .  S
Zr2119     O2121   2.464       .  S
Zr2119     O2122   2.469       .  S
Zr2119     O2125   2.461       .  S
Zr2119     O2127   2.386       .  S
Zr2119     O2128   2.386       .  S
Zr2119     O2129   2.413       .  S
Zr2119     O2130   2.406       .  S
O2120      H2176   0.990       .  S
O2120      H2184   0.990       .  S
O2121      C2141   1.289       .  A
O2122      C2143   1.289       .  A
O2123     Zr2133   2.437       .  S
O2123      C2142   1.284       .  A
O2124     Zr3044   2.423       .  S
O2124      C2143   1.282       .  A
O2125      C2142   1.289       .  A
O2126     Zr2134   2.399       .  S
O2126      C2141   1.278       .  A
O2127     Zr3044   2.402       .  S
O2127     Zr2134   2.384       .  S
O2128     Zr2133   2.385       .  S
O2128     Zr2134   2.377       .  S
O2128      H2163   0.966       .  S
O2129     Zr3044   2.405       .  S
O2129     Zr2149   2.394       .  S
O2129      H2166   0.964       .  S
O2130     Zr2133   2.391       .  S
O2130     Zr2149   2.399       .  S
Zr2131     O2156   2.442       .  S
Zr2131     O2150   2.459       .  S
Zr2131     O2158   2.428       .  S
Zr2131     O2146   2.445       .  S
Zr2131     O3049   2.407   1_545  S
Zr2131     O2138   2.406       .  S
Zr2131     O2139   2.376       .  S
Zr2131     O3052   2.383   1_545  S
Zr2132     O2151   2.436       .  S
Zr2132     O2144   2.433       .  S
Zr2132     O3036   2.424   1_545  S
Zr2132     O2145   2.454       .  S
Zr2132     O3039   2.404   1_545  S
Zr2132     O3041   2.405   1_545  S
Zr2132     O2138   2.389       .  S
Zr2132     O2139   2.392       .  S
Zr2133     O2135   2.434       .  S
Zr2133     O2157   2.439       .  S
Zr2133     O2159   2.422       .  S
Zr2133     O2137   2.398       .  S
Zr2133     O2140   2.395       .  S
Zr2134     O2160   2.435       .  S
Zr2134     O3073   2.437       .  S
Zr2134     O3048   2.438       .  S
Zr2134     O2137   2.391       .  S
Zr2134     O3050   2.375       .  S
O2135      H2172   0.990       .  S
O2136     Zr3046   2.438       .  S
O2136      H2167   0.990       .  S
O2136      H2181   0.990       .  S
O2137     Zr3043   2.409       .  S
O2138     Zr3046   2.380       .  S
O2138      H2164   0.964       .  S
O2139     Zr3061   2.387   1_545  S
O2140     Zr3043   2.388       .  S
O2140     Zr2149   2.382       .  S
O2140      H2165   0.966       .  S
C2141      C2242   1.479       .  S
C2142      C2266   1.486       .  S
C2143      C2277   1.480       .  S
O2144      H2180   0.990       .  S
O2145      C2147   1.288       .  A
O2146      C2147   1.286       .  A
C2147      C2193   1.481       .  S
O2148     Zr2149   2.440       .  S
O2148      H2177   0.990       .  S
Zr2149     O2152   2.440       .  S
Zr2149     O2153   2.438       .  S
Zr2149     O2154   2.426       .  S
Zr2149     O3051   2.386       .  S
O2150      C2155   1.288       .  A
O2151      H2168   0.990       .  S
O2151      H2183   0.990   1_545  S
O2152      H2169   0.990       .  S
O2153      H2173   0.990       .  S
O2153      H2182   0.989       .  S
O2154      C3067   1.281       .  A
C2155      O3066   1.280   1_545  A
C2155      C2202   1.481       .  S
O2156      H2175   0.990       .  S
O2156      H2179   0.991       .  S
O2157      H2171   0.990       .  S
O2157      H2178   0.990       .  S
O2158      C3074   1.281       .  A
O2159      C2162   1.283       .  A
O2160      H2170   0.990       .  S
O2161     Zr3046   2.434       .  S
O2161      H2174   0.990       .  S
C2162      O3070   1.283       .  A
C2162      C2226   1.469       .  S
C2185      H2187   1.086       .  S
C2185      C2186   1.343       .  D
C2186      H2188   1.088       .  S
C2189      H2191   1.088       .  S
C2189      C2190   1.334       .  D
C2190      H2192   1.087       .  S
C2193      H2195   1.086       .  S
C2193      C2194   1.354       .  D
C2194      H2196   1.086       .  S
C2197      H2199   1.087       .  S
C2197      C2198   1.341       .  D
C2198      H2200   1.087       .  S
C2201      H2203   1.086       .  S
C2201      C2202   1.355   1_565  D
C2202      H2204   1.086       .  S
C2205      H2207   1.086       .  S
C2205      C3118   1.347   1_565  D
C2206      H2208   1.087   1_554  S
C2206      C3117   1.346       .  D
C2209      C2210   1.349       .  D
C2210      H2212   1.087       .  S
C2213      H2215   1.087       .  S
C2213      C2214   1.347       .  D
C2214      H2216   1.086       .  S
C2217      C2218   1.343       .  D
C2218      H2220   1.087   1_655  S
C2221      H2223   1.086       .  S
C2221      C2222   1.346       .  D
C2222      H2224   1.086       .  S
C2225      H3139   1.086       .  S
C2225      C2226   1.343       .  D
C2226      H2228   1.088       .  S
H2227      C3137   1.086       .  S
C2229      H3143   1.087       .  S
C2229      C2230   1.337       .  D
C2230      H2232   1.088   1_655  S
H2231      C3141   1.087   1_545  S
C2233      H2235   1.087       .  S
C2233      C2234   1.342       .  D
C2234      H2236   1.087       .  S
C2237      H2239   1.087   1_554  S
C2237      C2238   1.341       .  D
C2237      C2319   1.476       .  S
C2238      H2240   1.087       .  S
C2241      H2243   1.086       .  S
C2241      C2242   1.352       .  D
C2242      H2244   1.087       .  S
C2245      H2247   1.086       .  S
C2245      C2246   1.352       .  D
C2246      H2248   1.086       .  S
C2249      H2251   1.087   1_554  S
C2249      C2250   1.343       .  D
C2249      C2307   1.476       .  S
C2250      H2708   1.087       .  S
H2252      C2706   1.087       .  S
C2253      H2255   1.087       .  S
C2253      C2254   1.345       .  D
C2254      H2256   1.087       .  S
C2257      H2259   1.086       .  S
C2257      C2258   1.344       .  D
C2258      H2260   1.086       .  S
C2261      H2263   1.088       .  S
C2261      C2262   1.341       .  D
C2262      H2264   1.086       .  S
C2265      H2267   1.086       .  S
C2265      C2266   1.350       .  D
C2266      H2268   1.086       .  S
C2269      H2271   1.085       .  S
C2269      C2270   1.355       .  D
C2270      H2272   1.086       .  S
C2273      H2275   1.087       .  S
C2273      C2274   1.347       .  D
C2274      H2276   1.088       .  S
C2277      H2279   1.087       .  S
C2277      C2278   1.351       .  D
C2278      H2280   1.086       .  S
C2281      C2282   1.532       .  S
C2281      C2287   1.524       .  S
C2281      C2285   1.535       .  S
C2281      C2729   1.513       .  S
C2282      H2289   1.082       .  S
C2282      C2283   1.374       .  D
C2283      C2284   1.561       .  S
C2283      C2334   1.508       .  S
C2284      C2288   1.551       .  S
C2284      C2286   1.541       .  S
C2284      H2290   1.107       .  S
C2285      H2291   1.086       .  S
C2285      C2286   1.363       .  D
C2286      C2734   1.483       .  S
C2287      H2292   1.087       .  S
C2287      C2288   1.363       .  D
C2288      C2725   1.492       .  S
C2293      C2294   1.532       .  S
C2293      C2299   1.531       .  S
C2293      C2297   1.542       .  S
C2293      C2717   1.521       .  S
C2294      H2301   1.082       .  S
C2294      C2295   1.373       .  D
C2295      C2296   1.562       .  S
C2295      C2370   1.511       .  S
C2296      C2300   1.555       .  S
C2296      C2298   1.536       .  S
C2296      H2302   1.108       .  S
C2297      H2303   1.086       .  S
C2297      C2298   1.367       .  D
C2298      C2713   1.486       .  S
C2299      H2304   1.086       .  S
C2299      C2300   1.366       .  D
C2300      C2721   1.503       .  S
C2305      C2306   1.530       .  S
C2305      C2311   1.528   1_554  S
C2305      C2709   1.496       .  S
C2306      C2307   1.365       .  D
C2307      C2308   1.538   1_554  S
C2308      C2312   1.543       .  S
C2308      H2314   1.107       .  S
C2309      H2315   1.082       .  S
C2309      C2310   1.365       .  D
C2310      C2343   1.499       .  S
C2311      H2316   1.086       .  S
C2311      C2312   1.361       .  D
C2312      C2701   1.485       .  S
C2317      C2323   1.529   1_554  S
C2317      C2689   1.495       .  S
C2318      H2325   1.086       .  S
C2319      C2320   1.535   1_554  S
C2320      C2324   1.543       .  S
C2320      H2326   1.107       .  S
C2321      H2327   1.082       .  S
C2321      C2322   1.364       .  D
C2322      C2355   1.500       .  S
C2323      H2328   1.086       .  S
C2323      C2324   1.361       .  D
C2324      C2697   1.485       .  S
C2329      C3247   1.528       .  S
C2329      C2333   1.536       .  S
C2329      C2686   1.504       .  S
C2330      H2337   1.087       .  S
C2330      C2331   1.358       .  D
C2331      C2681   1.473       .  S
C2332      C2336   1.552       .  S
C2332      C3246   1.572   1_545  S
C2332      H2338   1.108   1_655  S
C2333      H2339   1.083       .  S
C2333      C2334   1.376       .  D
C2334      C3244   1.562       .  S
C2335      C3241   1.529   1_545  S
C2335      H2340   1.086       .  S
C2335      C2336   1.363       .  D
C2336      C2677   1.488       .  S
C2341      C2342   1.528       .  S
C2341      C2347   1.529       .  S
C2341      C2673   1.499       .  S
C2342      H2349   1.082       .  S
C2342      C2343   1.364       .  D
C2344      C2346   1.544       .  S
C2344      H2350   1.107       .  S
C2345      H2351   1.086       .  S
C2345      C2346   1.366       .  D
C2346      C2670   1.484       .  S
C2347      H2352   1.086       .  S
C2347      C2348   1.362       .  D
C2348      C2665   1.490       .  S
C2353      C2354   1.529       .  S
C2353      C2359   1.528       .  S
C2353      C2357   1.533       .  S
C2353      C2654   1.502       .  S
C2354      H2361   1.082       .  S
C2354      C3267   1.365   1_545  D
C2355      C2356   1.560       .  S
C2355      C3266   1.366       .  D
C2356      C3272   1.544       .  S
C2356      C3270   1.544       .  S
C2356      H2362   1.107       .  S
C2357      H2363   1.086       .  S
C2357      C2358   1.367       .  D
C2358      C3268   1.544   1_545  S
C2358      C2661   1.483   1_545  S
C2359      H2364   1.086       .  S
C2359      C2360   1.362       .  D
C2360      C3268   1.544   1_545  S
C2360      C2657   1.490   1_545  S
C2365      C2366   1.527       .  S
C2365      C2371   1.528       .  S
C2365      C2369   1.538       .  S
C2365      C2645   1.508       .  S
C2366      H2373   1.087       .  S
C2366      C2367   1.358       .  D
C2367      C2368   1.535       .  S
C2367      C2641   1.477       .  S
C2368      C2372   1.554       .  S
C2368      C2370   1.563       .  S
C2368      H2374   1.107       .  S
C2369      H2375   1.083       .  S
C2369      C2370   1.378       .  D
C2371      H2376   1.086       .  S
C2371      C2372   1.364       .  D
C2372      C2650   1.498       .  S
Zr2377     O2378   2.442       .  S
Zr2377     O2379   2.429       .  S
Zr2377     O2380   2.422       .  S
Zr2377     O2385   2.385       .  S
Zr2377     O2387   2.405       .  S
O2378      H2434   0.991       .  S
O2378      H2442   0.990       .  S
O2379      C2399   1.282   1_556  A
O2380      C2401   1.281       .  A
O2381     Zr2391   2.424       .  S
O2381      C2400   1.281       .  A
O2382     Zr2390   2.442       .  S
O2382      C2401   1.285       .  A
O2383      C2400   1.286       .  A
O2384     Zr2392   2.396       .  S
O2385     Zr2390   2.398       .  S
O2386     Zr2391   2.382       .  S
O2386     Zr2392   2.372       .  S
O2386      H2421   0.965       .  S
O2387     Zr2390   2.402       .  S
O2387     Zr2863   2.389   1_556  S
O2387      H2424   0.965       .  S
O2388     Zr2391   2.387       .  S
O2388     Zr3319   2.393       .  S
Zr2389     O3320   2.423       .  S
Zr2389     O3328   2.440       .  S
Zr2389     O2395   2.390       .  S
Zr2389     O2396   2.404   1_655  S
Zr2389     O3309   2.381       .  S
Zr2389     O3310   2.389       .  S
Zr2390     O2853   2.389   1_556  S
Zr2391     O3305   2.434       .  S
Zr2391     O2415   2.438       .  S
Zr2391     O2417   2.407       .  S
Zr2391     O2395   2.395       .  S
Zr2391     O3310   2.395       .  S
Zr2392     O2418   2.436       .  S
Zr2392     O2395   2.383       .  S
Zr2392     O2396   2.388   1_655  S
O2393     Zr3303   2.434   1_545  S
O2393      H2430   0.990       .  S
O2394      H2425   0.990       .  S
O2397     Zr3301   2.381   1_545  S
O2397     Zr2846   2.391   1_645  S
O2397     Zr2407   2.373       .  S
O2398     Zr3301   2.385   1_545  S
O2398     Zr3303   2.395   1_545  S
O2398     Zr2407   2.382       .  S
O2398      H2423   0.967       .  S
C2399      C2710   1.468   1_554  S
C2400      C2694   1.468       .  S
C2401      C2730   1.469       .  S
O2402      H2438   0.990       .  S
O2404      C2405   1.285       .  A
C2405      C2662   1.478       .  S
O2406      H2435   0.990       .  S
Zr2407     O2411   2.439       .  S
Zr2407     O2412   2.403       .  S
Zr2407     O2843   2.382   1_545  S
Zr2407     O3300   2.393   1_545  S
O2408     Zr3301   2.428   1_545  S
O2408      C2413   1.281       .  A
O2409      H3338   0.990       .  S
O2410      H2427   0.989       .  S
O2411      H2431   0.990       .  S
O2411      H2440   0.990       .  S
O2412      C2413   1.280       .  A
C2413      C2674   1.470       .  S
O2414      H2433   0.990       .  S
O2414      H2437   0.990       .  S
O2415      H2429   0.990       .  S
O2415      H2436   0.990       .  S
O2416     Zr3301   2.442       .  S
O2416      C3332   1.289       .  A
O2417      C2420   1.277       .  A
O2418      H2428   0.990       .  S
O2419      H2432   0.990       .  S
C2420      O3328   1.288       .  A
C2420      C2685   1.473       .  S
H2426      O3321   0.990       .  S
Zr2443     O2446   2.444       .  S
Zr2443     O2451   2.377       .  S
Zr2443     O2452   2.387       .  S
Zr2443     O2453   2.404       .  S
O2444      H2500   0.990       .  S
O2444      H2508   0.991       .  S
O2446      C2467   1.285       .  A
O2447      C2466   1.286       .  A
O2448     Zr2456   2.442       .  S
O2448      C2467   1.285       .  A
O2449      C2466   1.279       .  A
O2450     Zr2458   2.431       .  S
O2450      C2465   1.283       .  A
O2451     Zr2456   2.398       .  S
O2451     Zr2458   2.384       .  S
O2452     Zr2457   2.397       .  S
O2452     Zr2458   2.377       .  S
O2453     Zr2456   2.401       .  S
O2453     Zr2473   2.389       .  S
O2453      H2490   0.965       .  S
Zr2455     O2480   2.449       .  S
Zr2455     O2474   2.444       .  S
Zr2455     O2482   2.428       .  S
Zr2455     O2470   2.443       .  S
Zr2455     O2461   2.404       .  S
Zr2455     O2462   2.407       .  S
Zr2455     O2463   2.373       .  S
Zr2455     O2464   2.382       .  S
Zr2456     O2475   2.435       .  S
Zr2456     O2468   2.434       .  S
Zr2456     O2469   2.440       .  S
Zr2456     O2462   2.398       .  S
Zr2456     O2463   2.394       .  S
Zr2457     O2483   2.454       .  S
Zr2457     O2461   2.391       .  S
Zr2457     O2464   2.393       .  S
Zr2458     O2484   2.435       .  S
Zr2458     O2485   2.436       .  S
Zr2458     O2460   2.437       .  S
Zr2458     O2461   2.393       .  S
Zr2458     O2462   2.403       .  S
O2459      H2496   0.990       .  S
O2460      H2491   0.990       .  S
O2460      H2505   0.990       .  S
O2462      H2488   0.966       .  S
O2463     Zr2473   2.379       .  S
O2464     Zr2473   2.378       .  S
O2464      H2489   0.966       .  S
C2465      C2666   1.479       .  S
C2466      C2642   1.463       .  S
C2467      C2678   1.477       .  S
O2468      H2504   0.990       .  S
O2469      C2471   1.286       .  A
O2470      C2471   1.285       .  A
C2471      C2714   1.479       .  S
O2472      H2501   0.990       .  S
Zr2473     O2476   2.437       .  S
Zr2473     O2478   2.418       .  S
O2474      C2479   1.286       .  A
O2475      H2492   0.990       .  S
O2475      H2507   0.990       .  S
O2476      H2493   0.990       .  S
O2477      H2497   0.990       .  S
O2477      H2506   0.990       .  S
O2478      C2479   1.281       .  A
C2479      C2702   1.478       .  S
O2480      H2499   0.990       .  S
O2480      H2503   0.989       .  S
O2481      H2495   0.990       .  S
O2481      H2502   0.990       .  S
O2482      C2486   1.284       .  A
O2483      C2486   1.288       .  A
O2484      H2494   0.990       .  S
O2485      H2498   0.990       .  S
C2486      C2726   1.476       .  S
Zr2509     O2510   2.441       .  S
Zr2509     O2511   2.425       .  S
Zr2509     O2512   2.408       .  S
Zr2509     O2517   2.379       .  S
Zr2509     O2519   2.405       .  S
O2510      H2566   0.991       .  S
O2510      H2574   0.990       .  S
O2511      C2531   1.281   1_556  A
O2512      C2533   1.278       .  A
O2513     Zr2523   2.433       .  S
O2513      C2532   1.283       .  A
O2514     Zr2522   2.462       .  S
O2514      C2533   1.288       .  A
O2515      C2532   1.285       .  A
O2516     Zr2524   2.395       .  S
O2517     Zr2522   2.391       .  S
O2518     Zr2523   2.382       .  S
O2518     Zr2524   2.378       .  S
O2518      H2553   0.966       .  S
O2519     Zr2522   2.405       .  S
O2519      H2556   0.966       .  S
O2520     Zr2523   2.390       .  S
O2520     Zr2539   2.393       .  S
Zr2521     O2546   2.442       .  S
Zr2521     O2540   2.429       .  S
Zr2521     O2548   2.443       .  S
Zr2521     O2536   2.453       .  S
Zr2521     O2527   2.395       .  S
Zr2521     O2528   2.404       .  S
Zr2521     O2529   2.378       .  S
Zr2521     O2530   2.391       .  S
Zr2522     O2541   2.437       .  S
Zr2522     O2534   2.434       .  S
Zr2522     O2535   2.449       .  S
Zr2523     O2525   2.434       .  S
Zr2523     O2547   2.439       .  S
Zr2523     O2549   2.413       .  S
Zr2523     O2527   2.398       .  S
Zr2523     O2530   2.398       .  S
Zr2524     O2550   2.436       .  S
Zr2524     O2551   2.436       .  S
Zr2524     O2526   2.437       .  S
Zr2524     O2527   2.383       .  S
Zr2524     O2528   2.387       .  S
O2525      H2562   0.990       .  S
O2526      H2557   0.990       .  S
O2528      H2554   0.965       .  S
O2529     Zr2539   2.372       .  S
O2530     Zr2539   2.381       .  S
O2530      H2555   0.967       .  S
C2531      C2690   1.465   1_554  S
C2532      C2706   1.475       .  S
C2533      C2718   1.474       .  S
O2534      H2570   0.990       .  S
O2536      C2537   1.286       .  A
C2537      C2669   1.475       .  S
O2538      H2567   0.990       .  S
Zr2539     O2543   2.439       .  S
Zr2539     O2544   2.408       .  S
O2540      C2545   1.281       .  A
O2541      H2558   0.990       .  S
O2541      H2573   0.990       .  S
O2542      H2559   0.990       .  S
O2543      H2563   0.990       .  S
O2543      H2572   0.990       .  S
O2544      C2545   1.281       .  A
C2545      C2653   1.472       .  S
O2546      H2565   0.990       .  S
O2546      H2569   0.990       .  S
O2547      H2561   0.990       .  S
O2547      H2568   0.990       .  S
O2548      C2552   1.289       .  A
O2549      C2552   1.279       .  A
O2550      H2560   0.990       .  S
O2551      H2564   0.990       .  S
C2552      C2646   1.475       .  S
Zr2575     O2576   2.441       .  S
Zr2575     O2577   2.468       .  S
Zr2575     O2578   2.463       .  S
Zr2575     O2581   2.480       .  S
Zr2575     O2583   2.391       .  S
Zr2575     O2584   2.383       .  S
Zr2575     O2585   2.423       .  S
Zr2575     O2586   2.405       .  S
O2576      H2632   0.990       .  S
O2576      H2640   0.990       .  S
O2577      C2597   1.289       .  A
O2578      C2599   1.289       .  A
O2579     Zr2589   2.428       .  S
O2579      C2598   1.283       .  A
O2580     Zr3500   2.424       .  S
O2580      C2599   1.283       .  A
O2581      C2598   1.292       .  A
O2582     Zr2590   2.398       .  S
O2582      C2597   1.277       .  A
O2583     Zr3500   2.412       .  S
O2583     Zr2590   2.383       .  S
O2584     Zr2589   2.390       .  S
O2584     Zr2590   2.380       .  S
O2584      H2619   0.965       .  S
O2585     Zr3500   2.415       .  S
O2585     Zr2605   2.396       .  S
O2585      H2622   0.965       .  S
O2586     Zr2589   2.393       .  S
O2586     Zr2605   2.402       .  S
Zr2587     O2612   2.443       .  S
Zr2587     O2606   2.440       .  S
Zr2587     O2614   2.462       .  S
Zr2587     O2602   2.473       .  S
Zr2587     O3505   2.397   1_545  S
Zr2587     O2594   2.409       .  S
Zr2587     O2595   2.387       .  S
Zr2587     O3508   2.395   1_545  S
Zr2588     O2607   2.437       .  S
Zr2588     O2600   2.435       .  S
Zr2588     O3492   2.454   1_545  S
Zr2588     O2601   2.442       .  S
Zr2588     O3495   2.403   1_545  S
Zr2588     O3497   2.401   1_545  S
Zr2588     O2594   2.411       .  S
Zr2588     O2595   2.397       .  S
Zr2589     O2591   2.436       .  S
Zr2589     O2613   2.440       .  S
Zr2589     O2615   2.423       .  S
Zr2589     O2593   2.396       .  S
Zr2589     O2596   2.394       .  S
Zr2590     O2616   2.437       .  S
Zr2590     O3529   2.436       .  S
Zr2590     O3504   2.437       .  S
Zr2590     O2593   2.392       .  S
Zr2590     O3506   2.373       .  S
O2591      H2628   0.990       .  S
O2592     Zr3502   2.438   1_545  S
O2592      H2623   0.990       .  S
O2592      H2637   0.990       .  S
O2593     Zr3499   2.403       .  S
O2594     Zr3502   2.376   1_545  S
O2594      H2620   0.965       .  S
O2595     Zr3517   2.382   1_545  S
O2596     Zr3499   2.381       .  S
O2596     Zr2605   2.380       .  S
O2596      H2621   0.967       .  S
C2597      C2698   1.480       .  S
C2598      C2722   1.488       .  S
C2599      C2733   1.477       .  S
O2600      H2636   0.990       .  S
O2601      C2603   1.286       .  A
O2602      C2603   1.290       .  A
C2603      C2649   1.483       .  S
O2604     Zr2605   2.442       .  S
O2604      H2633   0.990       .  S
Zr2605     O2608   2.439       .  S
Zr2605     O2609   2.439       .  S
Zr2605     O2610   2.432       .  S
Zr2605     O3507   2.388       .  S
O2606      C2611   1.284   1_545  A
O2607      H2624   0.990       .  S
O2607      H2639   0.990       .  S
O2608      H2625   0.990       .  S
O2609      H2629   0.990       .  S
O2609      H2638   0.990       .  S
O2610      C3523   1.283       .  A
C2611      O3522   1.282       .  A
C2611      C2658   1.476   1_565  S
O2612      H2631   0.991       .  S
O2612      H2635   0.990       .  S
O2613      H2627   0.990       .  S
O2613      H2634   0.990       .  S
O2614      C3530   1.289   1_545  A
O2615      C2618   1.283       .  A
O2616      H2626   0.990       .  S
O2617     Zr3502   2.435   1_545  S
O2617      H2630   0.990       .  S
C2618      O3526   1.279       .  A
C2618      C2682   1.464       .  S
C2641      H2643   1.086       .  S
C2641      C2642   1.341       .  D
C2642      H2644   1.088       .  S
C2645      H2647   1.088       .  S
C2645      C2646   1.340       .  D
C2646      H2648   1.086       .  S
C2649      H2651   1.086       .  S
C2649      C2650   1.352       .  D
C2650      H2652   1.086       .  S
C2653      H2655   1.087       .  S
C2653      C2654   1.345       .  D
C2654      H2656   1.087       .  S
C2657      H2659   1.086       .  S
C2657      C2658   1.350   1_565  D
C2658      H2660   1.086       .  S
C2661      H2663   1.086       .  S
C2661      C3574   1.346   1_565  D
C2662      H2664   1.087       .  S
C2662      C3573   1.345       .  D
C2665      C2666   1.350       .  D
C2666      H2668   1.086       .  S
C2669      H2671   1.087       .  S
C2669      C2670   1.344       .  D
C2670      H2672   1.086       .  S
C2673      C2674   1.343       .  D
C2674      H2676   1.087   1_655  S
C2677      H2679   1.086       .  S
C2677      C2678   1.349       .  D
C2678      H2680   1.086       .  S
C2681      H3595   1.086       .  S
C2681      C2682   1.340       .  D
C2682      H2684   1.088       .  S
H2683      C3593   1.086       .  S
C2685      H3599   1.087       .  S
C2685      C2686   1.338       .  D
C2686      H2688   1.088       .  S
H2687      C3597   1.087   1_545  S
C2689      H2691   1.087       .  S
C2689      C2690   1.343   1_554  D
C2690      H2692   1.087       .  S
C2693      H2695   1.087       .  S
C2693      C2694   1.338       .  D
C2694      H2696   1.087       .  S
C2697      H2699   1.086       .  S
C2697      C2698   1.354       .  D
C2698      H2700   1.086       .  S
C2701      H2703   1.086       .  S
C2701      C2702   1.351       .  D
C2702      H2704   1.087       .  S
C2705      H2707   1.086       .  S
C2705      C2706   1.344       .  D
C2709      H2711   1.087       .  S
C2709      C2710   1.343   1_554  D
C2710      H2712   1.087       .  S
C2713      H2715   1.086       .  S
C2713      C2714   1.345       .  D
C2714      H2716   1.087       .  S
C2717      H2719   1.086       .  S
C2717      C2718   1.344       .  D
C2718      H2720   1.088       .  S
C2721      H2723   1.086       .  S
C2721      C2722   1.352       .  D
C2722      H2724   1.086       .  S
C2725      H2727   1.085       .  S
C2725      C2726   1.351       .  D
C2726      H2728   1.087       .  S
C2729      H2731   1.086       .  S
C2729      C2730   1.345       .  D
C2730      H2732   1.088       .  S
C2733      H2735   1.087       .  S
C2733      C2734   1.348       .  D
C2734      H2736   1.086       .  S
C2737      C2738   1.531       .  S
C2737      C2743   1.524       .  S
C2737      C2741   1.535       .  S
C2737      C3185   1.509       .  S
C2738      H2745   1.082       .  S
C2738      C2739   1.374       .  D
C2739      C2740   1.562       .  S
C2739      C2790   1.507       .  S
C2740      C2744   1.551       .  S
C2740      C2742   1.540       .  S
C2740      H2746   1.108       .  S
C2741      H2747   1.086       .  S
C2741      C2742   1.362       .  D
C2742      C3190   1.484       .  S
C2743      H2748   1.086       .  S
C2743      C2744   1.362       .  D
C2744      C3181   1.491       .  S
C2749      C2750   1.536       .  S
C2749      C2755   1.532       .  S
C2749      C2753   1.537       .  S
C2749      C3173   1.511       .  S
C2750      H2757   1.083       .  S
C2750      C2751   1.374       .  D
C2751      C2752   1.559       .  S
C2751      C2826   1.507       .  S
C2752      C2756   1.548       .  S
C2752      C2754   1.528       .  S
C2752      H2758   1.106       .  S
C2753      H2759   1.087       .  S
C2753      C2754   1.360       .  D
C2754      C3169   1.477       .  S
C2755      H2760   1.086       .  S
C2755      C2756   1.367       .  D
C2756      C3177   1.494       .  S
C2761      C2762   1.533       .  S
C2761      C2767   1.526       .  S
C2761      C3221   1.529       .  S
C2761      C3165   1.497       .  S
C2762      H3225   1.086       .  S
C2762      C2763   1.367       .  D
C2763      C2764   1.544       .  S
C2763      C3617   1.487       .  S
C2764      C2768   1.551       .  S
C2764      C3222   1.565       .  S
C2764      H2770   1.106       .  S
C2765      C3217   1.528   1_554  S
C2765      H2771   1.082       .  S
C2765      C2766   1.363       .  D
C2766      C3220   1.558   1_554  S
C2766      C2799   1.495       .  S
C2767      H2772   1.086       .  S
C2767      C2768   1.360       .  D
C2768      C3157   1.495       .  S
H2769      C3218   1.086       .  S
C2773      C3230   1.535       .  S
C2773      C2779   1.530       .  S
C2773      C3233   1.530       .  S
C2773      C3145   1.498       .  S
C2774      C3229   1.536       .  S
C2774      H2781   1.086       .  S
C2774      C3231   1.368       .  D
C2775      C2776   1.535       .  S
C2775      C3230   1.367       .  D
C2775      C3605   1.474       .  S
C2776      C2780   1.539       .  S
C2776      C3234   1.559       .  S
C2776      H2782   1.107       .  S
C2777      C3229   1.527       .  S
C2777      H2783   1.082       .  S
C2777      C2778   1.362       .  D
C2778      C3232   1.560   1_554  S
C2778      C2811   1.496       .  S
C2779      H2784   1.086       .  S
C2779      C2780   1.361       .  D
C2780      C3153   1.483       .  S
C2785      C2789   1.536       .  S
C2785      C3142   1.503       .  S
C2786      H2793   1.087       .  S
C2786      C2787   1.358   1_565  D
C2787      C3137   1.473   1_545  S
C2788      C2792   1.555       .  S
C2788      H2794   1.107       .  S
C2789      H2795   1.083       .  S
C2789      C2790   1.376       .  D
C2791      H2796   1.086       .  S
C2791      C2792   1.365       .  D
C2792      C3133   1.495       .  S
C2797      C2798   1.527       .  S
C2797      C2803   1.534       .  S
C2797      C3129   1.502       .  S
C2798      H2805   1.082       .  S
C2798      C2799   1.363       .  D
C2800      C2802   1.538       .  S
C2800      H2806   1.106       .  S
C2801      H2807   1.086       .  S
C2801      C2802   1.366       .  D
C2802      C3126   1.477       .  S
C2803      H2808   1.086       .  S
C2803      C2804   1.362       .  D
C2804      C3121   1.493       .  S
C2809      C2810   1.531       .  S
C2809      C2815   1.530       .  S
C2809      C2813   1.533       .  S
C2809      C3110   1.503       .  S
C2810      H2817   1.082       .  S
C2811      C2812   1.562       .  S
C2812      H2818   1.107       .  S
C2813      H2819   1.086       .  S
C2813      C2814   1.367       .  D
C2814      C3117   1.480       .  S
C2815      H2820   1.086       .  S
C2815      C2816   1.361       .  D
C2816      C3113   1.494       .  S
C2821      C2822   1.536       .  S
C2821      C2827   1.526       .  S
C2821      C2825   1.528       .  S
C2821      C3101   1.507       .  S
C2822      H2829   1.087       .  S
C2822      C2823   1.362       .  D
C2823      C2824   1.535       .  S
C2823      C3097   1.479       .  S
C2824      C2828   1.553       .  S
C2824      C2826   1.562       .  S
C2824      H2830   1.107       .  S
C2825      H2831   1.081       .  S
C2825      C2826   1.373       .  D
C2827      H2832   1.087       .  S
C2827      C2828   1.363       .  D
C2828      C3106   1.490       .  S
Zr2833     O2834   2.440       .  S
Zr2833     O2835   2.425       .  S
Zr2833     O2836   2.413       .  S
Zr2833     O3295   2.423       .  S
Zr2833     O2841   2.384       .  S
Zr2833     O3298   2.375       .  S
Zr2833     O2843   2.400       .  S
Zr2833     O3300   2.393       .  S
O2834      H2890   0.990       .  S
O2834      H2898   0.990       .  S
O2835      C2855   1.281       .  A
O2836      C2857   1.280       .  A
O2837     Zr2847   2.427       .  S
O2837      C2856   1.281       .  A
O2838     Zr2846   2.440   1_655  S
O2838      C2857   1.285       .  A
O2839     Zr3289   2.430       .  S
O2839      C2856   1.285   1_556  A
O2840     Zr2848   2.408       .  S
O2840      C3311   1.282   1_554  A
O2841     Zr2846   2.392   1_655  S
O2841     Zr3304   2.375       .  S
O2842     Zr3289   2.379   1_554  S
O2842     Zr2847   2.375       .  S
O2842     Zr2848   2.377       .  S
O2842      H2877   0.965       .  S
O2843     Zr2846   2.400   1_655  S
O2843      H2880   0.966       .  S
O2844     Zr3289   2.398   1_554  S
O2844     Zr2847   2.388       .  S
Zr2845     O2851   2.393       .  S
Zr2845     O2852   2.401   1_655  S
Zr2846     O3308   2.407       .  S
Zr2847     O2871   2.437       .  S
Zr2847     O2873   2.395       .  S
Zr2847     O2851   2.397       .  S
Zr2848     O2874   2.436       .  S
Zr2848     O3297   2.376   1_554  S
Zr2848     O2851   2.390       .  S
Zr2848     O2852   2.386   1_655  S
O2849      H2886   0.990       .  S
O2850      H2881   0.991       .  S
O2850      H3351   0.990   1_554  S
O2852     Zr3302   2.398   1_554  S
O2853     Zr2863   2.373       .  S
O2854     Zr2863   2.383       .  S
O2854      H2879   0.965       .  S
C2855      O3296   1.280       .  A
C2855      C3166   1.468       .  S
C2856      C3150   1.471       .  S
C2857      C3186   1.464       .  S
O2858      H2894   0.990       .  S
O2859      C3317   1.285       .  A
O2860      C2861   1.284       .  A
C2861      O3315   1.287   1_554  A
C2861      C3118   1.480   1_565  S
O2862     Zr3319   2.439       .  S
O2862      H2891   0.990       .  S
Zr2863     O3318   2.439   1_554  S
Zr2863     O3322   2.438   1_554  S
Zr2863     O2867   2.440       .  S
Zr2863     O2868   2.410       .  S
O2864      C2869   1.281       .  A
O2866     Zr3319   2.438       .  S
O2866      H2883   0.990       .  S
O2867      H2887   0.990       .  S
O2867      H2896   0.989       .  S
O2868      C2869   1.281       .  A
C2869      C3130   1.471       .  S
O2870      H2889   0.990   1_565  S
O2870      H2893   0.990       .  S
O2871      H2885   0.990       .  S
O2871      H2892   0.990       .  S
O2873      C2876   1.275       .  A
O2874      H2884   0.990       .  S
O2875      H2888   0.990       .  S
C2876      C3141   1.470       .  S
H2895      O3306   0.990       .  S
Zr2899     O2902   2.454   1_455  S
Zr2899     O2907   2.383   1_455  S
Zr2899     O2908   2.386       .  S
Zr2899     O2909   2.412   1_455  S
O2900      H2956   0.990       .  S
O2900      H2964   0.991       .  S
O2902      C2923   1.286       .  A
O2903      C2922   1.283       .  A
O2904     Zr2912   2.452       .  S
O2904      C2923   1.286       .  A
O2905      C2922   1.285       .  A
O2906     Zr2914   2.426       .  S
O2906      C2921   1.282       .  A
O2907     Zr2912   2.394       .  S
O2907     Zr2914   2.385       .  S
O2908     Zr2913   2.401       .  S
O2908     Zr2914   2.379   1_455  S
O2909     Zr2912   2.401       .  S
O2909     Zr2929   2.386       .  S
O2909      H2946   0.964       .  S
Zr2911     O2936   2.444       .  S
Zr2911     O2930   2.457       .  S
Zr2911     O2938   2.450       .  S
Zr2911     O2926   2.432       .  S
Zr2911     O2917   2.397       .  S
Zr2911     O2918   2.416       .  S
Zr2911     O2919   2.379       .  S
Zr2911     O2920   2.383       .  S
Zr2912     O2931   2.437       .  S
Zr2912     O2924   2.436       .  S
Zr2912     O2925   2.429       .  S
Zr2912     O2918   2.406       .  S
Zr2912     O2919   2.400       .  S
Zr2913     O2939   2.433       .  S
Zr2913     O2917   2.389   1_455  S
Zr2913     O2920   2.393   1_455  S
Zr2914     O2940   2.437       .  S
Zr2914     O2941   2.437       .  S
Zr2914     O2916   2.437       .  S
Zr2914     O2917   2.389       .  S
Zr2914     O2918   2.405       .  S
O2915      H2952   0.990       .  S
O2916      H2947   0.990       .  S
O2916      H2961   0.990       .  S
O2918      H2944   0.965       .  S
O2919     Zr2929   2.378       .  S
O2920     Zr2929   2.383       .  S
O2920      H2945   0.966       .  S
C2921      C3122   1.487       .  S
C2922      C3098   1.475       .  S
C2923      C3134   1.482       .  S
O2924      H2960   0.990       .  S
O2925      C2927   1.283       .  A
O2926      C2927   1.281       .  A
C2927      C3170   1.468       .  S
O2928      H2957   0.990       .  S
Zr2929     O2932   2.437       .  S
Zr2929     O2934   2.419       .  S
O2930      C2935   1.288       .  A
O2931      H2948   0.991       .  S
O2931      H2963   0.990       .  S
O2932      H2949   0.990       .  S
O2933      H2953   0.990       .  S
O2933      H2962   0.990       .  S
O2934      C2935   1.280       .  A
C2935      C3158   1.484       .  S
O2936      H2955   0.991       .  S
O2936      H2959   0.991       .  S
O2937      H2951   0.990       .  S
O2937      H2958   0.990       .  S
O2938      C2942   1.287       .  A
O2939      C2942   1.284   1_455  A
O2940      H2950   0.990       .  S
O2941      H2954   0.990       .  S
C2942      C3182   1.477       .  S
Zr2965     O2966   2.443       .  S
Zr2965     O2967   2.433       .  S
Zr2965     O2968   2.433       .  S
Zr2965     O3427   2.444       .  S
Zr2965     O2973   2.389       .  S
Zr2965     O3430   2.380       .  S
Zr2965     O2975   2.409       .  S
Zr2965     O3432   2.399       .  S
O2966      H3022   0.991       .  S
O2966      H3030   0.990       .  S
O2967      C2987   1.282       .  A
O2968      C2989   1.285       .  A
O2969     Zr2979   2.454       .  S
O2969      C2988   1.288       .  A
O2970     Zr2978   2.443       .  S
O2970      C2989   1.284       .  A
O2971     Zr3421   2.404   1_554  S
O2971      C2988   1.281       .  A
O2972     Zr2980   2.409       .  S
O2972      C3443   1.281   1_554  A
O2973     Zr2978   2.400       .  S
O2973     Zr3436   2.380       .  S
O2974     Zr3421   2.377   1_554  S
O2974     Zr2979   2.380       .  S
O2974     Zr2980   2.377       .  S
O2974      H3009   0.966       .  S
O2975     Zr2978   2.408       .  S
O2975     Zr3451   2.385       .  S
O2975      H3012   0.965       .  S
O2976     Zr3421   2.391   1_554  S
O2976     Zr2979   2.390       .  S
O2976     Zr2995   2.392       .  S
Zr2977     O3002   2.444       .  S
Zr2977     O2996   2.425       .  S
Zr2977     O3004   2.415       .  S
Zr2977     O2992   2.410       .  S
Zr2977     O2983   2.392       .  S
Zr2977     O2984   2.397       .  S
Zr2977     O2985   2.377       .  S
Zr2977     O2986   2.383       .  S
Zr2978     O2997   2.438       .  S
Zr2978     O2990   2.437       .  S
Zr2978     O2991   2.445       .  S
Zr2978     O3440   2.402       .  S
Zr2978     O3441   2.388       .  S
Zr2979     O2981   2.434       .  S
Zr2979     O3003   2.440       .  S
Zr2979     O3005   2.431       .  S
Zr2979     O2983   2.395       .  S
Zr2979     O2986   2.395       .  S
Zr2980     O3006   2.436       .  S
Zr2980     O3007   2.436       .  S
Zr2980     O2982   2.437       .  S
Zr2980     O3429   2.378   1_554  S
Zr2980     O2983   2.388       .  S
Zr2980     O2984   2.388       .  S
O2981      H3018   0.990       .  S
O2982      H3013   0.990       .  S
O2982      H3483   0.990   1_554  S
O2984     Zr3434   2.398   1_554  S
O2984      H3010   0.967       .  S
O2985     Zr3434   2.387   1_554  S
O2985     Zr2995   2.373       .  S
O2986     Zr2995   2.376       .  S
O2986      H3011   0.966       .  S
C2987      O3428   1.279       .  A
C2987      C3146   1.470       .  S
C2988      C3162   1.475       .  S
C2989      C3174   1.482       .  S
O2990      H3026   0.990       .  S
O2991      C3449   1.285       .  A
O2992      C2993   1.282       .  A
C2993      O3447   1.289   1_554  A
C2993      C3125   1.478       .  S
O2994     Zr3451   2.439       .  S
O2994      H3023   0.990       .  S
Zr2995     O3450   2.440   1_554  S
Zr2995     O3454   2.436   1_554  S
Zr2995     O2999   2.441       .  S
Zr2995     O3000   2.417       .  S
Zr2995     O3431   2.392   1_554  S
O2996      C3001   1.282       .  A
O2997      H3014   0.990       .  S
O2997      H3029   0.990       .  S
O2998     Zr3451   2.439       .  S
O2998      H3015   0.990       .  S
O2999      H3019   0.990       .  S
O2999      H3028   0.990       .  S
O3000      C3001   1.282       .  A
C3001      C3109   1.472       .  S
O3002      H3021   0.990       .  S
O3002      H3025   0.990       .  S
O3003      H3017   0.990       .  S
O3003      H3024   0.990       .  S
O3004      C3008   1.281       .  A
O3005      C3008   1.285       .  A
O3006      H3016   0.990       .  S
O3007      H3020   0.990       .  S
C3008      C3102   1.464       .  S
H3027      O3438   0.990       .  S
Zr3031     O3032   2.441       .  S
Zr3031     O3033   2.453       .  S
Zr3031     O3034   2.455       .  S
Zr3031     O3037   2.451       .  S
Zr3031     O3039   2.384       .  S
Zr3031     O3040   2.384       .  S
Zr3031     O3041   2.413       .  S
Zr3031     O3042   2.402       .  S
O3032      H3088   0.990       .  S
O3032      H3096   0.990       .  S
O3033      C3053   1.287       .  A
O3034      C3055   1.287       .  A
O3035     Zr3045   2.441       .  S
O3035      C3054   1.285       .  A
O3036      C3055   1.283       .  A
O3037      C3054   1.288       .  A
O3038     Zr3046   2.408   1_565  S
O3038      C3053   1.279       .  A
O3039     Zr3046   2.381   1_565  S
O3040     Zr3045   2.388       .  S
O3040     Zr3046   2.373   1_565  S
O3040      H3075   0.966       .  S
O3041     Zr3061   2.396       .  S
O3041      H3078   0.964       .  S
O3042     Zr3045   2.389       .  S
O3042     Zr3061   2.393       .  S
Zr3043     O3068   2.444       .  S
Zr3043     O3062   2.456       .  S
Zr3043     O3070   2.438       .  S
Zr3043     O3058   2.457       .  S
Zr3043     O3050   2.406       .  S
Zr3043     O3051   2.382       .  S
Zr3044     O3063   2.435       .  S
Zr3044     O3056   2.435       .  S
Zr3044     O3057   2.441       .  S
Zr3044     O3050   2.391       .  S
Zr3044     O3051   2.399       .  S
Zr3045     O3047   2.435       .  S
Zr3045     O3069   2.438       .  S
Zr3045     O3071   2.423       .  S
Zr3045     O3049   2.395       .  S
Zr3045     O3052   2.394       .  S
Zr3046     O3072   2.435   1_545  S
Zr3046     O3049   2.389   1_545  S
O3047      H3084   0.990       .  S
O3048      H3079   0.990       .  S
O3048      H3093   0.990       .  S
O3050      H3076   0.964       .  S
O3052     Zr3061   2.382       .  S
O3052      H3077   0.966       .  S
C3053      C3154   1.477       .  S
C3054      C3178   1.483       .  S
C3055      C3189   1.475       .  S
O3056      H3092   0.990       .  S
O3057      C3059   1.285       .  A
O3058      C3059   1.289       .  A
C3059      C3105   1.479       .  S
O3060     Zr3061   2.439       .  S
O3060      H3089   0.990       .  S
Zr3061     O3064   2.437       .  S
Zr3061     O3065   2.441       .  S
Zr3061     O3066   2.415       .  S
O3062      C3067   1.288       .  A
O3063      H3080   0.991       .  S
O3063      H3095   0.990       .  S
O3064      H3081   0.990       .  S
O3065      H3085   0.990       .  S
O3065      H3094   0.990       .  S
C3067      C3114   1.484       .  S
O3068      H3087   0.990       .  S
O3068      H3091   0.991       .  S
O3069      H3083   0.990       .  S
O3069      H3090   0.990       .  S
O3071      C3074   1.283   1_565  A
O3072      H3082   0.990       .  S
O3073      H3086   0.990       .  S
C3074      C3138   1.464       .  S
C3097      H3099   1.086       .  S
C3097      C3098   1.345       .  D
C3098      H3100   1.087       .  S
C3101      H3103   1.087       .  S
C3101      C3102   1.343       .  D
C3102      H3104   1.088       .  S
C3105      H3107   1.086       .  S
C3105      C3106   1.350       .  D
C3106      H3108   1.086       .  S
C3109      H3111   1.087       .  S
C3109      C3110   1.345       .  D
C3110      H3112   1.087       .  S
C3113      H3115   1.086       .  S
C3113      C3114   1.354       .  D
C3114      H3116   1.086       .  S
C3117      H3119   1.086       .  S
C3118      H3120   1.087   1_554  S
C3121      C3122   1.353       .  D
C3122      H3124   1.086       .  S
C3125      H3127   1.086   1_554  S
C3125      C3126   1.346       .  D
C3126      H3128   1.087       .  S
C3129      C3130   1.342       .  D
C3130      H3132   1.087   1_655  S
C3133      H3135   1.086       .  S
C3133      C3134   1.352       .  D
C3134      H3136   1.086       .  S
C3137      C3138   1.342   1_565  D
C3138      H3140   1.088       .  S
C3141      C3142   1.335       .  D
C3142      H3144   1.088       .  S
C3145      H3147   1.087       .  S
C3145      C3146   1.344       .  D
C3146      H3148   1.087       .  S
C3149      H3151   1.087   1_554  S
C3149      C3150   1.339       .  D
C3149      C3231   1.476       .  S
C3150      H3152   1.087       .  S
C3153      H3155   1.086       .  S
C3153      C3154   1.351       .  D
C3154      H3156   1.087       .  S
C3157      H3159   1.086       .  S
C3157      C3158   1.356       .  D
C3158      H3160   1.086       .  S
C3161      H3163   1.087   1_554  S
C3161      C3162   1.346       .  D
C3161      C3219   1.476       .  S
C3162      H3620   1.086       .  S
H3164      C3618   1.087       .  S
C3165      H3167   1.087       .  S
C3165      C3166   1.344       .  D
C3166      H3168   1.087       .  S
C3169      H3171   1.086       .  S
C3169      C3170   1.340       .  D
C3170      H3172   1.087       .  S
C3173      H3175   1.087       .  S
C3173      C3174   1.346       .  D
C3174      H3176   1.086       .  S
C3177      H3179   1.086       .  S
C3177      C3178   1.348       .  D
C3178      H3180   1.086       .  S
C3181      H3183   1.086       .  S
C3181      C3182   1.350       .  D
C3182      H3184   1.087   1_655  S
C3185      H3187   1.087       .  S
C3185      C3186   1.344       .  D
C3186      H3188   1.088       .  S
C3189      H3191   1.087       .  S
C3189      C3190   1.347       .  D
C3190      H3192   1.086       .  S
C3193      C3194   1.535       .  S
C3193      C3199   1.528       .  S
C3193      C3197   1.534       .  S
C3193      C3641   1.513       .  S
C3194      H3201   1.083       .  S
C3194      C3195   1.374       .  D
C3195      C3196   1.569       .  S
C3195      C3246   1.514       .  S
C3196      C3200   1.560       .  S
C3196      C3198   1.547       .  S
C3196      H3202   1.107       .  S
C3197      H3203   1.086       .  S
C3197      C3198   1.364       .  D
C3198      C3646   1.494       .  S
C3199      H3204   1.087       .  S
C3199      C3200   1.361       .  D
C3200      C3637   1.505       .  S
C3205      C3206   1.528       .  S
C3205      C3211   1.527       .  S
C3205      C3209   1.539       .  S
C3205      C3629   1.511       .  S
C3206      H3213   1.082       .  S
C3206      C3207   1.370       .  D
C3207      C3208   1.557       .  S
C3207      C3282   1.503       .  S
C3208      C3212   1.550       .  S
C3208      C3210   1.540       .  S
C3208      H3214   1.108       .  S
C3209      H3215   1.086       .  S
C3209      C3210   1.367       .  D
C3210      C3625   1.484       .  S
C3211      H3216   1.087       .  S
C3211      C3212   1.362       .  D
C3212      C3633   1.489       .  S
C3217      C3218   1.533   1_556  S
C3217      C3223   1.529       .  S
C3217      C3621   1.496   1_556  S
C3218      C3219   1.367       .  D
C3219      C3220   1.539   1_554  S
C3220      C3224   1.543       .  S
C3220      H3226   1.106       .  S
C3221      H3227   1.082       .  S
C3221      C3222   1.365       .  D
C3222      C3255   1.502       .  S
C3223      H3228   1.086       .  S
C3223      C3224   1.360       .  D
C3224      C3613   1.488       .  S
C3229      C3235   1.529   1_554  S
C3229      C3601   1.496       .  S
C3230      H3237   1.086       .  S
C3231      C3232   1.533   1_554  S
C3232      C3236   1.539       .  S
C3232      H3238   1.107       .  S
C3233      H3239   1.082       .  S
C3233      C3234   1.363       .  D
C3234      C3267   1.499       .  S
C3235      H3240   1.087       .  S
C3235      C3236   1.360       .  D
C3236      C3609   1.479       .  S
C3241      C3245   1.532       .  S
C3241      C3598   1.502       .  S
C3242      H3249   1.087       .  S
C3242      C3243   1.359   1_565  D
C3243      C3593   1.484       .  S
C3244      C3248   1.551       .  S
C3244      H3250   1.106       .  S
C3245      H3251   1.083       .  S
C3245      C3246   1.374       .  D
C3247      H3252   1.086       .  S
C3247      C3248   1.363       .  D
C3248      C3589   1.490       .  S
C3253      C3254   1.528       .  S
C3253      C3259   1.531       .  S
C3253      C3585   1.500       .  S
C3254      H3261   1.082       .  S
C3254      C3255   1.364       .  D
C3256      C3258   1.544       .  S
C3256      H3262   1.107       .  S
C3257      H3263   1.086       .  S
C3257      C3258   1.368       .  D
C3258      C3582   1.487       .  S
C3259      H3264   1.086       .  S
C3259      C3260   1.361       .  D
C3260      C3577   1.494       .  S
C3265      C3266   1.531       .  S
C3265      C3271   1.530       .  S
C3265      C3269   1.533       .  S
C3265      C3566   1.503       .  S
C3266      H3273   1.082       .  S
C3267      C3268   1.561       .  S
C3268      H3274   1.107       .  S
C3269      H3275   1.086       .  S
C3269      C3270   1.367       .  D
C3270      C3573   1.485       .  S
C3271      H3276   1.086       .  S
C3271      C3272   1.363       .  D
C3272      C3569   1.492       .  S
C3277      C3278   1.529       .  S
C3277      C3283   1.529       .  S
C3277      C3281   1.537       .  S
C3277      C3557   1.506       .  S
C3278      H3285   1.087       .  S
C3278      C3279   1.359       .  D
C3279      C3280   1.538       .  S
C3279      C3553   1.485       .  S
C3280      C3284   1.556       .  S
C3280      C3282   1.560       .  S
C3280      H3286   1.107       .  S
C3281      H3287   1.084       .  S
C3281      C3282   1.375       .  D
C3283      H3288   1.086       .  S
C3283      C3284   1.363       .  D
C3284      C3562   1.496       .  S
Zr3289     O3290   2.441       .  S
Zr3289     O3291   2.421       .  S
Zr3289     O3292   2.422       .  S
Zr3289     O3297   2.386       .  S
Zr3289     O3299   2.403       .  S
O3290      H3346   0.991       .  S
O3290      H3354   0.990       .  S
O3291      C3311   1.280       .  A
O3292      C3313   1.281       .  A
O3293     Zr3303   2.430       .  S
O3293      C3312   1.282       .  A
O3294     Zr3302   2.433   1_655  S
O3294      C3313   1.283       .  A
O3295      C3312   1.284       .  A
O3296     Zr3304   2.404       .  S
O3297     Zr3302   2.394   1_655  S
O3298     Zr3303   2.376       .  S
O3298     Zr3304   2.375       .  S
O3298      H3333   0.965       .  S
O3299     Zr3302   2.402   1_655  S
O3299      H3336   0.966       .  S
O3300     Zr3303   2.383       .  S
Zr3301     O3307   2.392       .  S
Zr3301     O3308   2.409   1_655  S
Zr3303     O3327   2.438       .  S
Zr3303     O3329   2.399       .  S
Zr3303     O3307   2.402       .  S
Zr3304     O3330   2.435       .  S
Zr3304     O3307   2.388       .  S
Zr3304     O3308   2.391   1_655  S
O3305      H3342   0.990       .  S
O3306      H3337   0.990       .  S
O3309     Zr3319   2.373       .  S
O3310     Zr3319   2.383       .  S
O3310      H3335   0.967       .  S
C3311      C3622   1.466       .  S
C3312      C3606   1.470       .  S
C3313      C3642   1.467       .  S
O3314      H3350   0.990       .  S
O3316      C3317   1.284       .  A
C3317      C3574   1.479   1_565  S
O3318      H3347   0.990       .  S
Zr3319     O3323   2.436       .  S
Zr3319     O3324   2.404       .  S
O3320      C3325   1.280       .  A
O3322      H3339   0.990       .  S
O3323      H3343   0.990       .  S
O3323      H3352   0.990       .  S
O3324      C3325   1.280       .  A
C3325      C3586   1.468       .  S
O3326      H3345   0.991       .  S
O3326      H3349   0.990   1_565  S
O3327      H3341   0.990       .  S
O3327      H3348   0.990       .  S
O3329      C3332   1.276       .  A
O3330      H3340   0.990       .  S
O3331      H3344   0.990       .  S
C3332      C3597   1.470       .  S
Zr3355     O3358   2.450       .  S
Zr3355     O3363   2.376       .  S
Zr3355     O3364   2.387       .  S
Zr3355     O3365   2.408       .  S
O3356      H3412   0.991       .  S
O3356      H3420   0.991       .  S
O3358      C3379   1.285       .  A
O3359      C3378   1.290       .  A
O3360     Zr3368   2.446       .  S
O3360      C3379   1.285       .  A
O3361      C3378   1.279       .  A
O3362     Zr3370   2.430       .  S
O3362      C3377   1.282       .  A
O3363     Zr3368   2.399       .  S
O3363     Zr3370   2.386       .  S
O3364     Zr3369   2.403       .  S
O3364     Zr3370   2.375       .  S
O3365     Zr3368   2.402       .  S
O3365     Zr3385   2.390       .  S
O3365      H3402   0.965       .  S
Zr3367     O3392   2.446       .  S
Zr3367     O3386   2.446       .  S
Zr3367     O3394   2.446       .  S
Zr3367     O3382   2.441       .  S
Zr3367     O3373   2.400       .  S
Zr3367     O3374   2.412       .  S
Zr3367     O3375   2.376       .  S
Zr3367     O3376   2.381       .  S
Zr3368     O3387   2.437       .  S
Zr3368     O3380   2.436       .  S
Zr3368     O3381   2.435       .  S
Zr3368     O3374   2.401       .  S
Zr3368     O3375   2.395       .  S
Zr3369     O3395   2.476       .  S
Zr3369     O3373   2.392       .  S
Zr3369     O3376   2.393       .  S
Zr3370     O3396   2.435       .  S
Zr3370     O3397   2.434       .  S
Zr3370     O3372   2.436       .  S
Zr3370     O3373   2.393       .  S
Zr3370     O3374   2.402       .  S
O3371      H3408   0.990       .  S
O3372      H3403   0.990       .  S
O3372      H3417   0.990       .  S
O3374      H3400   0.967       .  S
O3375     Zr3385   2.372       .  S
O3376     Zr3385   2.382       .  S
O3376      H3401   0.966       .  S
C3377      C3578   1.486       .  S
C3378      C3554   1.471       .  S
C3379      C3590   1.479       .  S
O3380      H3416   0.990       .  S
O3381      C3383   1.285       .  A
O3382      C3383   1.285       .  A
C3383      C3626   1.476       .  S
O3384      H3413   0.991       .  S
Zr3385     O3388   2.438       .  S
Zr3385     O3390   2.423       .  S
O3386      C3391   1.287       .  A
O3387      H3404   0.990       .  S
O3387      H3419   0.990       .  S
O3388      H3405   0.990       .  S
O3389      H3409   0.990       .  S
O3389      H3418   0.990       .  S
O3390      C3391   1.282       .  A
C3391      C3614   1.479       .  S
O3392      H3411   0.990       .  S
O3392      H3415   0.990       .  S
O3393      H3407   0.990       .  S
O3393      H3414   0.990       .  S
O3394      C3398   1.287       .  A
O3395      C3398   1.292       .  A
O3396      H3406   0.990       .  S
O3397      H3410   0.990       .  S
C3398      C3638   1.493       .  S
Zr3421     O3422   2.441       .  S
Zr3421     O3423   2.423       .  S
Zr3421     O3424   2.402       .  S
Zr3421     O3429   2.379       .  S
Zr3421     O3431   2.399       .  S
O3422      H3478   0.991       .  S
O3422      H3486   0.990       .  S
O3423      C3443   1.281       .  A
O3424      C3445   1.277       .  A
O3425     Zr3435   2.437       .  S
O3425      C3444   1.284       .  A
O3426     Zr3434   2.451       .  S
O3426      C3445   1.288       .  A
O3427      C3444   1.286       .  A
O3428     Zr3436   2.398       .  S
O3429     Zr3434   2.395       .  S
O3430     Zr3435   2.384       .  S
O3430     Zr3436   2.381       .  S
O3430      H3465   0.966       .  S
O3431     Zr3434   2.403       .  S
O3431      H3468   0.966       .  S
O3432     Zr3435   2.387       .  S
O3432     Zr3451   2.396       .  S
Zr3433     O3458   2.442       .  S
Zr3433     O3452   2.432       .  S
Zr3433     O3460   2.442       .  S
Zr3433     O3448   2.443       .  S
Zr3433     O3439   2.392       .  S
Zr3433     O3440   2.406       .  S
Zr3433     O3441   2.380       .  S
Zr3433     O3442   2.386       .  S
Zr3434     O3453   2.436       .  S
Zr3434     O3446   2.434       .  S
Zr3434     O3447   2.460       .  S
Zr3435     O3437   2.434       .  S
Zr3435     O3459   2.438       .  S
Zr3435     O3461   2.412       .  S
Zr3435     O3439   2.398       .  S
Zr3435     O3442   2.394       .  S
Zr3436     O3462   2.435       .  S
Zr3436     O3463   2.436       .  S
Zr3436     O3438   2.437       .  S
Zr3436     O3439   2.382       .  S
Zr3436     O3440   2.387       .  S
O3437      H3474   0.990       .  S
O3438      H3469   0.990       .  S
O3440      H3466   0.966       .  S
O3441     Zr3451   2.370       .  S
O3442     Zr3451   2.382       .  S
O3442      H3467   0.965       .  S
C3443      C3602   1.467       .  S
C3444      C3618   1.481       .  S
C3445      C3630   1.468       .  S
O3446      H3482   0.990       .  S
O3448      C3449   1.285       .  A
C3449      C3581   1.480       .  S
O3450      H3479   0.990       .  S
Zr3451     O3455   2.440       .  S
Zr3451     O3456   2.406       .  S
O3452      C3457   1.282       .  A
O3453      H3470   0.990       .  S
O3453      H3485   0.990       .  S
O3454      H3471   0.990       .  S
O3455      H3475   0.990       .  S
O3455      H3484   0.989       .  S
O3456      C3457   1.280       .  A
C3457      C3565   1.473       .  S
O3458      H3477   0.990       .  S
O3458      H3481   0.990       .  S
O3459      H3473   0.990       .  S
O3459      H3480   0.990       .  S
O3460      C3464   1.289       .  A
O3461      C3464   1.279       .  A
O3462      H3472   0.990       .  S
O3463      H3476   0.990       .  S
C3464      C3558   1.476       .  S
Zr3487     O3488   2.440       .  S
Zr3487     O3489   2.464       .  S
Zr3487     O3490   2.440       .  S
Zr3487     O3493   2.441       .  S
Zr3487     O3495   2.379       .  S
Zr3487     O3496   2.375       .  S
Zr3487     O3497   2.418       .  S
Zr3487     O3498   2.404       .  S
O3488      H3544   0.990       .  S
O3488      H3552   0.990       .  S
O3489      C3509   1.289       .  A
O3490      C3511   1.284       .  A
O3491     Zr3501   2.441       .  S
O3491      C3510   1.285       .  A
O3492      C3511   1.287       .  A
O3493      C3510   1.285       .  A
O3494     Zr3502   2.388       .  S
O3494      C3509   1.275       .  A
O3495     Zr3502   2.386       .  S
O3496     Zr3501   2.389       .  S
O3496     Zr3502   2.383       .  S
O3496      H3531   0.966       .  S
O3497     Zr3517   2.401       .  S
O3497      H3534   0.965       .  S
O3498     Zr3501   2.379       .  S
O3498     Zr3517   2.396       .  S
Zr3499     O3524   2.442       .  S
Zr3499     O3518   2.440       .  S
Zr3499     O3526   2.421       .  S
Zr3499     O3514   2.431       .  S
Zr3499     O3506   2.401       .  S
Zr3499     O3507   2.379       .  S
Zr3500     O3519   2.437       .  S
Zr3500     O3512   2.434       .  S
Zr3500     O3513   2.475       .  S
Zr3500     O3506   2.389       .  S
Zr3500     O3507   2.392       .  S
Zr3501     O3503   2.436       .  S
Zr3501     O3525   2.436       .  S
Zr3501     O3527   2.402       .  S
Zr3501     O3505   2.401       .  S
Zr3501     O3508   2.393       .  S
Zr3502     O3528   2.437       .  S
Zr3502     O3505   2.382       .  S
O3503      H3540   0.990       .  S
O3504      H3535   0.990       .  S
O3504      H3549   0.990       .  S
O3506      H3532   0.964       .  S
O3508     Zr3517   2.374       .  S
O3508      H3533   0.966       .  S
C3509      C3610   1.476       .  S
C3510      C3634   1.481       .  S
C3511      C3645   1.479       .  S
O3512      H3548   0.990       .  S
O3513      C3515   1.292       .  A
O3514      C3515   1.283       .  A
C3515      C3561   1.485       .  S
O3516     Zr3517   2.438       .  S
O3516      H3545   0.991       .  S
Zr3517     O3520   2.437       .  S
Zr3517     O3521   2.438       .  S
Zr3517     O3522   2.427       .  S
O3518      C3523   1.284       .  A
O3519      H3536   0.991       .  S
O3519      H3551   0.990       .  S
O3520      H3537   0.990       .  S
O3521      H3541   0.990       .  S
O3521      H3550   0.990       .  S
C3523      C3570   1.480       .  S
O3524      H3543   0.990       .  S
O3524      H3547   0.991       .  S
O3525      H3539   0.990       .  S
O3525      H3546   0.990       .  S
O3527      C3530   1.278       .  A
O3528      H3538   0.990       .  S
O3529      H3542   0.990       .  S
C3530      C3594   1.465       .  S
C3553      H3555   1.086       .  S
C3553      C3554   1.342       .  D
C3554      H3556   1.088       .  S
C3557      H3559   1.088       .  S
C3557      C3558   1.339       .  D
C3558      H3560   1.087       .  S
C3561      H3563   1.086       .  S
C3561      C3562   1.356       .  D
C3562      H3564   1.086       .  S
C3565      H3567   1.087       .  S
C3565      C3566   1.346       .  D
C3566      H3568   1.087       .  S
C3569      H3571   1.086       .  S
C3569      C3570   1.350       .  D
C3570      H3572   1.086       .  S
C3573      H3575   1.086       .  S
C3574      H3576   1.087       .  S
C3577      C3578   1.354       .  D
C3578      H3580   1.087       .  S
C3581      H3583   1.087       .  S
C3581      C3582   1.346       .  D
C3582      H3584   1.086       .  S
C3585      C3586   1.342       .  D
C3586      H3588   1.087   1_655  S
C3589      H3591   1.086       .  S
C3589      C3590   1.350       .  D
C3590      H3592   1.086       .  S
C3593      C3594   1.344   1_545  D
C3594      H3596   1.087       .  S
C3597      C3598   1.336       .  D
C3598      H3600   1.088       .  S
C3601      H3603   1.087       .  S
C3601      C3602   1.341   1_554  D
C3602      H3604   1.087       .  S
C3605      H3607   1.087       .  S
C3605      C3606   1.339       .  D
C3606      H3608   1.087       .  S
C3609      H3611   1.086       .  S
C3609      C3610   1.352       .  D
C3610      H3612   1.087       .  S
C3613      H3615   1.086       .  S
C3613      C3614   1.351       .  D
C3614      H3616   1.086       .  S
C3617      H3619   1.086       .  S
C3617      C3618   1.347       .  D
C3621      H3623   1.087       .  S
C3621      C3622   1.341   1_554  D
C3622      H3624   1.087       .  S
C3625      H3627   1.086       .  S
C3625      C3626   1.346       .  D
C3626      H3628   1.086       .  S
C3629      H3631   1.087       .  S
C3629      C3630   1.340       .  D
C3630      H3632   1.088       .  S
C3633      H3635   1.085       .  S
C3633      C3634   1.350       .  D
C3634      H3636   1.088       .  S
C3637      H3639   1.085       .  S
C3637      C3638   1.358       .  D
C3638      H3640   1.087       .  S
C3641      H3643   1.087       .  S
C3641      C3642   1.346       .  D
C3642      H3644   1.088       .  S
C3645      H3647   1.086       .  S
C3645      C3646   1.350       .  D
C3646      H3648   1.086       .  S
