geometry optimzed in LAMMPS
_audit_creation_date              2020-11-30 
_audit_creation_method            'lammps2cif' 
_symmetry_space_group_name_H-M    'P1' 
_symmetry_Int_Tables_number       1 
_symmetry_cell_setting            triclinic 
loop_ 
_symmetry_equiv_pos_as_xyz 
  x,y,z 
_cell_length_a                    43.89467089578049 
_cell_length_b                    43.7868552258276 
_cell_length_c                    43.82475689237288 
_cell_angle_alpha                 90.02703121768113 
_cell_angle_beta                  90.10350800875767 
_cell_angle_gamma                 89.98208602374957 
loop_ 
_atom_site_label 
_atom_site_type_symbol 
_atom_site_fract_x 
_atom_site_fract_y 
_atom_site_fract_z 
_atom_site_charge 
N1          N  0.56845640  0.33937432  0.48352690    -0.06740
N2          N  0.58596605  0.36159655  0.47331938    -0.58860
N3          N  0.57103582  0.26944564  0.51171137    -0.06420
N4          N  0.59630189  0.25563818  0.52071195    -0.60990
N5          N  0.56960344  0.26958051  0.48168634    -0.06020
N6          N  0.59342296  0.25550401  0.47006351    -0.58840
N7          N  0.56866768  0.33885591  0.51347236    -0.05700
N8          N  0.58627793  0.36067124  0.52442612    -0.61340
C9          C  0.59667304  0.37473207  0.49910474     0.95440
C10         C  0.61007704  0.24691480  0.49447126     0.95210
N11         N  0.48948884  0.26846672  0.56526938    -0.06930
N12         N  0.48051682  0.25513172  0.59083933    -0.59440
N13         N  0.51912225  0.33782171  0.56420330    -0.05050
N14         N  0.52989413  0.35967007  0.58199605    -0.60690
N15         N  0.48918155  0.33795560  0.56439370    -0.06960
N16         N  0.47888981  0.35989056  0.58230351    -0.59710
N17         N  0.51953206  0.26810645  0.56378690    -0.04690
N18         N  0.53100676  0.25420107  0.58785091    -0.60780
Mn19       Mn  0.54486709  0.30319164  0.53860036     1.18440
C20         C  0.50662410  0.24587256  0.60458785     0.97520
C21         C  0.50453207  0.37329622  0.59294817     0.98180
N22         N  0.51834495  0.27060225  0.43056693    -0.06980
N23         N  0.52933413  0.25610145  0.40664590    -0.63280
N24         N  0.48825221  0.34030447  0.43337689    -0.05780
N25         N  0.47776156  0.36201485  0.41534421    -0.63960
N26         N  0.51815343  0.34019068  0.43342867    -0.06480
N27         N  0.52880321  0.36182189  0.41547832    -0.63550
N28         N  0.48837023  0.27102832  0.42951484    -0.05380
N29         N  0.47875343  0.25723714  0.40438100    -0.64240
Mn30       Mn  0.54387004  0.30466020  0.45710745     1.10660
C31         C  0.50455330  0.24747836  0.39043800     0.98740
C32         C  0.50335333  0.37531223  0.40462093     0.98820
N33         N  0.43822508  0.33877341  0.51405496    -0.06490
N34         N  0.42011181  0.36028918  0.52489804    -0.61860
N35         N  0.43729257  0.26965967  0.48235205    -0.05810
N36         N  0.41249402  0.25695695  0.47109428    -0.58590
N37         N  0.43633346  0.26958695  0.51250064    -0.07120
N38         N  0.41042945  0.25727936  0.52174418    -0.61430
N39         N  0.43821387  0.33919222  0.48405153    -0.06110
N40         N  0.42014554  0.36100436  0.47382360    -0.58620
Mn41       Mn  0.46289917  0.30326885  0.53948850     1.20190
Mn42       Mn  0.46269852  0.30471390  0.45706206     1.10090
Cl43       Cl  0.50344319  0.30313105  0.49814835    -0.86590
C44         C  0.40920331  0.37402972  0.49951378     0.95750
C45         C  0.39573839  0.24945977  0.49571013     0.95540
N46         N  0.56936841  0.50560679  0.34558507    -0.06740
N47         N  0.58741901  0.51613866  0.36730115    -0.58860
N48         N  0.57214708  0.47600081  0.27599927    -0.06420
N49         N  0.59785215  0.46706736  0.26287977    -0.60990
N50         N  0.57069187  0.50606488  0.27602446    -0.06020
N51         N  0.59483570  0.51765001  0.26261230    -0.58840
N52         N  0.56966819  0.47561062  0.34532097    -0.05700
N53         N  0.58782518  0.46499977  0.36689619    -0.61340
C54         C  0.59854012  0.49053870  0.38049047     0.95440
C55         C  0.61177210  0.49339073  0.25431298     0.95210
N56         N  0.48897786  0.42448203  0.27540911    -0.06930
N57         N  0.47796239  0.39957062  0.26255427    -0.59440
N58         N  0.51894274  0.42586002  0.34484369    -0.05050
N59         N  0.52924636  0.40840214  0.36708195    -0.60690
N60         N  0.48901346  0.42621147  0.34473318    -0.06960
N61         N  0.47820938  0.40896238  0.36686743    -0.59710
N62         N  0.51904822  0.42360159  0.27568959    -0.04690
N63         N  0.52855114  0.39781061  0.26324533    -0.60780
Mn64       Mn  0.54530747  0.44984989  0.30999975     1.18440
C65         C  0.50273345  0.38299751  0.25506869     0.97520
C66         C  0.50358219  0.39825866  0.38064397     0.98180
N67         N  0.51935383  0.55706268  0.27552416    -0.06980
N68         N  0.53083121  0.58044504  0.26060670    -0.63280
N69         N  0.48886117  0.55668990  0.34487906    -0.05780
N70         N  0.47840288  0.57498797  0.36637324    -0.63960
N71         N  0.51878117  0.55616434  0.34519932    -0.06480
N72         N  0.52942141  0.57412716  0.36689738    -0.63550
N73         N  0.48936165  0.55850595  0.27553546    -0.05380
N74         N  0.48025240  0.58339580  0.26101556    -0.64240
Mn75       Mn  0.54471895  0.53146463  0.31037347     1.10660
C76         C  0.50638481  0.59674936  0.25139711     0.98740
C77         C  0.50397708  0.58546106  0.37997373     0.98820
N78         N  0.43873325  0.47642506  0.34456763    -0.06490
N79         N  0.42107905  0.46565515  0.36640014    -0.61860
N80         N  0.43678750  0.50656670  0.27527784    -0.05810
N81         N  0.41168938  0.51627890  0.26163175    -0.58590
N82         N  0.43759963  0.47646656  0.27505342    -0.07120
N83         N  0.41334890  0.46558174  0.26103590    -0.61430
N84         N  0.43852852  0.50642121  0.34463133    -0.06110
N85         N  0.42076332  0.51680829  0.36655091    -0.58620
Mn86       Mn  0.46334590  0.45065691  0.30959457     1.20190
Mn87       Mn  0.46297246  0.53249290  0.30971133     1.10090
Cl88       Cl  0.50409839  0.49110317  0.30938844    -0.86590
C89         C  0.41025606  0.49111762  0.37997980     0.95750
C90         C  0.39727168  0.49049785  0.25254128     0.95540
N91         N  0.51991365  0.64466020  0.43130717    -0.06740
N92         N  0.53003376  0.62244290  0.41372427    -0.58860
N93         N  0.49125408  0.71485716  0.42937643    -0.06420
N94         N  0.48080268  0.72826169  0.40453132    -0.60990
N95         N  0.52128778  0.71389897  0.42862893    -0.06020
N96         N  0.53129941  0.72639730  0.40307723    -0.58840
N97         N  0.49001057  0.64525993  0.43133823    -0.05700
N98         N  0.47901589  0.62341217  0.41373017    -0.61340
C99         C  0.50427646  0.60933239  0.40314322     0.95440
C100        C  0.50589470  0.73566344  0.38824728     0.95210
N101        N  0.43904720  0.71594196  0.51161902    -0.06930
N102        N  0.41389784  0.72909171  0.52171713    -0.59440
N103        N  0.44017670  0.64639627  0.48183819    -0.05050
N104        N  0.42236077  0.62457418  0.47119408    -0.60690
N105        N  0.44013315  0.64648891  0.51183003    -0.06960
N106        N  0.42222667  0.62468005  0.52229845    -0.59710
N107        N  0.43907271  0.71571591  0.48149327    -0.04690
N108        N  0.41397762  0.72869481  0.47104120    -0.60780
Mn109      Mn  0.46490118  0.68098207  0.45575598     1.18440
C110        C  0.39837375  0.73707020  0.49626268     0.97520
C111        C  0.41152533  0.61115838  0.49667928     0.98180
N112        N  0.57374266  0.71312874  0.48048475    -0.06980
N113        N  0.59879035  0.72585344  0.46981921    -0.63280
N114        N  0.57032892  0.64425364  0.51133249    -0.05780
N115        N  0.58800396  0.62239322  0.52205469    -0.63960
N116        N  0.57025681  0.64400086  0.48135949    -0.06480
N117        N  0.58788184  0.62195498  0.47093668    -0.63550
N118        N  0.57402320  0.71356272  0.51056345    -0.05380
N119        N  0.59925265  0.72678517  0.52047239    -0.64240
Mn120      Mn  0.54655370  0.67929739  0.45518167     1.10660
C121        C  0.61449798  0.73475929  0.49484181     0.98740
C122        C  0.59853483  0.60862278  0.49659508     0.98820
N123        N  0.49064335  0.64634967  0.56254219    -0.06490
N124        N  0.47986571  0.62525177  0.58112434    -0.61860
N125        N  0.52211232  0.71560876  0.56229838    -0.05810
N126        N  0.53371688  0.72971432  0.58617921    -0.58590
N127        N  0.49207798  0.71572775  0.56374195    -0.07120
N128        N  0.48317734  0.72956720  0.58908376    -0.61430
N129        N  0.52057361  0.64588977  0.56239970    -0.06110
N130        N  0.53085774  0.62442921  0.58092233    -0.58620
Mn131      Mn  0.46513847  0.68151956  0.53777447     1.20190
Mn132      Mn  0.54699146  0.68016088  0.53693770     1.10090
Cl133      Cl  0.50588530  0.68109385  0.49643083    -0.86590
C134        C  0.50520042  0.61167481  0.59223120     0.95750
C135        C  0.50938957  0.73857700  0.60278216     0.95540
N136        N  0.65531252  0.42681053  0.51474312    -0.06740
N137        N  0.63315599  0.40931735  0.52513457    -0.58860
N138        N  0.72470793  0.42288026  0.48606741    -0.06420
N139        N  0.73685513  0.39679607  0.47695845    -0.60990
N140        N  0.72473773  0.42420107  0.51615400    -0.06020
N141        N  0.73713827  0.39928571  0.52762992    -0.58840
N142        N  0.65570384  0.42639909  0.48478329    -0.05700
N143        N  0.63392927  0.40866186  0.47403924    -0.61340
C144        C  0.61999755  0.39838304  0.49944467     0.95440
C145        C  0.74466796  0.38231552  0.50307027     0.95210
N146        N  0.72655771  0.50419770  0.43159599    -0.06930
N147        N  0.73930560  0.51311165  0.40576665    -0.59440
N148        N  0.65698501  0.47549583  0.43337478    -0.05050
N149        N  0.63517725  0.46493877  0.41545084    -0.60690
N150        N  0.65739374  0.50548483  0.43282795    -0.06960
N151        N  0.63591614  0.51605702  0.41455134    -0.59710
N152        N  0.72645278  0.47406471  0.43303631    -0.04690
N153        N  0.73938898  0.46242358  0.40849708    -0.60780
Mn154      Mn  0.69135779  0.44947221  0.45907238     1.18440
C155        C  0.74733321  0.48687222  0.39156409     0.97520
C156        C  0.62218044  0.49051763  0.40406063     0.98180
N157        N  0.72489378  0.47696863  0.56724749    -0.06980
N158        N  0.73833027  0.46705288  0.59239755    -0.63280
N159        N  0.65600693  0.50778659  0.56387835    -0.05780
N160        N  0.63439088  0.51877219  0.58167721    -0.63960
N161        N  0.65570581  0.47780968  0.56423161    -0.06480
N162        N  0.63392464  0.46761945  0.58219154    -0.63550
N163        N  0.72517913  0.50707252  0.56660246    -0.05380
N164        N  0.73863348  0.51775287  0.59134559    -0.64240
Mn165      Mn  0.69052545  0.45117060  0.54083772     1.10660
C166        C  0.74714554  0.49270687  0.60725070     0.98740
C167        C  0.62075788  0.49340038  0.59267827     0.98820
N168        N  0.65747521  0.55655645  0.48250693    -0.06490
N169        N  0.63570135  0.57421632  0.47153592    -0.61860
N170        N  0.72630817  0.55834800  0.51336100    -0.05810
N171        N  0.73951052  0.58345357  0.52356571    -0.58590
N172        N  0.72663534  0.55801909  0.48323562    -0.07120
N173        N  0.73999879  0.58300715  0.47290349    -0.61430
N174        N  0.65720748  0.55691801  0.51248372    -0.06110
N175        N  0.63529915  0.57479258  0.52264740    -0.58620
Mn176      Mn  0.69247063  0.53139284  0.45722686     1.20190
Mn177      Mn  0.69157262  0.53282575  0.53933020     1.10090
Cl178      Cl  0.69213074  0.49123180  0.49911168    -0.86590
C179        C  0.62203516  0.58518553  0.49687338     0.95750
C180        C  0.74820405  0.59870987  0.49824200     0.95540
N181        N  0.43968580  0.50874712  0.64955064    -0.06740
N182        N  0.42198430  0.51947707  0.62771752    -0.58860
N183        N  0.43710829  0.47762645  0.71870344    -0.06420
N184        N  0.41267813  0.46599714  0.73165875    -0.60990
N185        N  0.43566581  0.50769588  0.71861781    -0.06020
N186        N  0.40968530  0.51668578  0.73102650    -0.58840
N187        N  0.43990346  0.47876088  0.64921120    -0.05700
N188        N  0.42230983  0.46831203  0.62714940    -0.61340
C189        C  0.41156769  0.49398125  0.61388604     0.95440
C190        C  0.39558386  0.49040823  0.73919492     0.95210
N191        N  0.51804136  0.42534647  0.72002165    -0.06930
N192        N  0.52689872  0.40014508  0.73420555    -0.59440
N193        N  0.48960921  0.42778580  0.64990514    -0.05050
N194        N  0.47915818  0.40923890  0.62857470    -0.60690
N195        N  0.51950095  0.42737139  0.65049019    -0.06960
N196        N  0.53015057  0.40852476  0.62950427    -0.59710
N197        N  0.48807720  0.42667558  0.71949383    -0.04690
N198        N  0.47637007  0.40289840  0.73355849    -0.60780
Mn199      Mn  0.46355223  0.45260943  0.68454661     1.18440
C200        C  0.50057662  0.38638632  0.74283465     0.97520
C201        C  0.50468933  0.39759929  0.61591998     0.98180
N202        N  0.48815165  0.55986697  0.72078776    -0.06980
N203        N  0.47707105  0.58452129  0.73404874    -0.63280
N204        N  0.51938568  0.55947905  0.65155528    -0.05780
N205        N  0.53020513  0.57749341  0.62998912    -0.63960
N206        N  0.48945719  0.55950507  0.65116545    -0.06480
N207        N  0.47920918  0.57753866  0.62928608    -0.63550
N208        N  0.51824598  0.56078147  0.72086431    -0.05380
N209        N  0.52765429  0.58638056  0.73386592    -0.64240
Mn210      Mn  0.46295199  0.53428440  0.68544368     1.10660
C211        C  0.50178142  0.60102384  0.74210724     0.98740
C212        C  0.50488476  0.58841566  0.61622091     0.98820
N213        N  0.56924473  0.47850175  0.65173801    -0.06490
N214        N  0.58684576  0.46798832  0.62976954    -0.61860
N215        N  0.57114227  0.50808953  0.72084074    -0.05810
N216        N  0.59677853  0.51752841  0.73371938    -0.58590
N217        N  0.57001141  0.47794275  0.72118724    -0.07120
N218        N  0.59442958  0.46689976  0.73479493    -0.61430
N219        N  0.56931996  0.50853627  0.65183017    -0.06110
N220        N  0.58700766  0.51914448  0.62995818    -0.58620
Mn221      Mn  0.54458887  0.45199310  0.68625261     1.20190
Mn222      Mn  0.54489935  0.53459485  0.68669970     1.10090
Cl223      Cl  0.50410678  0.49347092  0.68660193    -0.86590
C224        C  0.59754167  0.49357524  0.61635845     0.95750
C225        C  0.61105350  0.49163227  0.74274304     0.95540
N226        N  0.35096959  0.42682816  0.48409136    -0.06740
N227        N  0.37238239  0.40836961  0.47383338    -0.58860
N228        N  0.28134642  0.42768089  0.51442521    -0.06420
N229        N  0.26772539  0.40352880  0.52606877    -0.60990
N230        N  0.28186841  0.42575776  0.48434750    -0.06020
N231        N  0.26900708  0.39986767  0.47551761    -0.58840
N232        N  0.35096406  0.42735492  0.51406829    -0.05700
N233        N  0.37246304  0.40919316  0.52491368    -0.61340
C234        C  0.38567853  0.39771360  0.49951137     0.95440
C235        C  0.26016570  0.38618552  0.50175224     0.95210
N236        N  0.28311257  0.51104730  0.56419925    -0.06930
N237        N  0.27034658  0.52270957  0.58881188    -0.59440
N238        N  0.35199259  0.47925077  0.56293536    -0.05050
N239        N  0.37391556  0.46857353  0.58053320    -0.60690
N240        N  0.35240883  0.50923831  0.56250100    -0.06960
N241        N  0.37467516  0.51972962  0.57980538    -0.59710
N242        N  0.28297999  0.48093651  0.56564678    -0.04690
N243        N  0.27036882  0.47201790  0.59153491    -0.60780
Mn244      Mn  0.31642639  0.45351498  0.53954306     1.18440
C245        C  0.26249397  0.49826776  0.60579484     0.97520
C246        C  0.38791225  0.49408428  0.59064462     0.98180
N247        N  0.28270205  0.47723110  0.43047649    -0.06980
N248        N  0.27011476  0.46723690  0.40489030    -0.63280
N249        N  0.35226905  0.50642707  0.43258643    -0.05780
N250        N  0.37400576  0.51672892  0.41462156    -0.63960
N251        N  0.35188261  0.47642388  0.43265825    -0.06480
N252        N  0.37340211  0.46558916  0.41461657    -0.63550
N253        N  0.28283780  0.50738499  0.43074984    -0.05380
N254        N  0.26993322  0.51796507  0.40568972    -0.64240
Mn255      Mn  0.31645108  0.45121941  0.45755798     1.10660
C256        C  0.26208870  0.49284621  0.38960322     0.98740
C257        C  0.38704767  0.49104780  0.40376140     0.98820
N258        N  0.35320957  0.55865278  0.51167306    -0.06490
N259        N  0.37474255  0.57686029  0.52214456    -0.61860
N260        N  0.28389224  0.56053028  0.48126600    -0.05810
N261        N  0.27145960  0.58534588  0.46970906    -0.58590
N262        N  0.28432398  0.56223858  0.51130011    -0.07120
N263        N  0.27249182  0.58855158  0.52025429    -0.61430
N264        N  0.35328638  0.55812588  0.48172181    -0.06110
N265        N  0.37496882  0.57608084  0.47105024    -0.58620
Mn266      Mn  0.31786244  0.53548024  0.53770043     1.20190
Mn267      Mn  0.31772707  0.53326013  0.45635162     1.10090
Cl268      Cl  0.31651312  0.49335144  0.49777139    -0.86590
C269        C  0.38822564  0.58735487  0.49658178     0.95750
C270        C  0.26426134  0.60276037  0.49409713     0.95540
N271        N  0.85296207  0.56117162  0.01486696    -0.06740
N272        N  0.87469250  0.57921433  0.02532568    -0.58860
N273        N  0.78329320  0.56327087  0.98600853    -0.06420
N274        N  0.76871917  0.58798222  0.97667688    -0.60990
N275        N  0.78344717  0.56222911  0.01607428    -0.06020
N276        N  0.76888302  0.58603532  0.02735930    -0.58840
N277        N  0.85262006  0.56148235  0.98489424    -0.05700
N278        N  0.87403552  0.57970870  0.97423220    -0.61340
C279        C  0.88769129  0.59039561  0.99970440     0.95440
C280        C  0.75961838  0.60201963  0.00267432     0.95210
N281        N  0.78271921  0.48219260  0.93174940    -0.06930
N282        N  0.76948457  0.47300069  0.90620919    -0.59440
N283        N  0.85217326  0.51139051  0.93388147    -0.05050
N284        N  0.87446024  0.52174392  0.91651918    -0.60690
N285        N  0.85184608  0.48137819  0.93359982    -0.06960
N286        N  0.87381707  0.47059576  0.91619453    -0.59710
N287        N  0.78264207  0.51231570  0.93298888    -0.04690
N288        N  0.76911200  0.52370532  0.90861280    -0.60780
Mn289      Mn  0.81736112  0.53744196  0.95910549     1.18440
C290        C  0.76097486  0.49909246  0.89196359     0.97520
C291        C  0.88778623  0.49598338  0.90588763     0.98180
N292        N  0.78432608  0.50959751  0.06714361    -0.06980
N293        N  0.77003113  0.51930168  0.09183374    -0.63280
N294        N  0.85354600  0.47951692  0.06352128    -0.05780
N295        N  0.87540828  0.46845457  0.08094866    -0.63960
N296        N  0.85365003  0.50950994  0.06416141    -0.06480
N297        N  0.87561521  0.51961415  0.08206435    -0.63550
N298        N  0.78448512  0.47951680  0.06650378    -0.05380
N299        N  0.77052348  0.46857732  0.09078244    -0.64240
Mn300      Mn  0.81829351  0.53599358  0.04092423     1.10660
C301        C  0.76115698  0.49349214  0.10636702     0.98740
C302        C  0.88903037  0.49373126  0.09209547     0.98820
N303        N  0.85221046  0.43008794  0.98272727    -0.06490
N304        N  0.87371412  0.41207699  0.97176564    -0.61860
N305        N  0.78324457  0.42877886  0.01375562    -0.05810
N306        N  0.76921383  0.40425042  0.02416511    -0.58590
N307        N  0.78299286  0.42887658  0.98366349    -0.07120
N308        N  0.76909276  0.40416363  0.97348638    -0.61430
N309        N  0.85259295  0.42980573  0.01269096    -0.06110
N310        N  0.87431606  0.41162286  0.02285274    -0.58620
Mn311      Mn  0.81698900  0.45531838  0.95757899     1.20190
Mn312      Mn  0.81814876  0.45413276  0.03938700     1.10090
Cl313      Cl  0.81715260  0.49573404  0.99923358    -0.86590
C314        C  0.88737905  0.40094038  0.99709491     0.95750
C315        C  0.76015061  0.38906416  0.99887326     0.95540
N316        N  0.02104683  0.42882268  0.84713081    -0.06740
N317        N  0.03204301  0.41073209  0.86859842    -0.58860
N318        N  0.98975556  0.42519268  0.77883497    -0.06420
N319        N  0.97982667  0.39984045  0.76569805    -0.60990
N320        N  0.01973515  0.42622687  0.77758754    -0.06020
N321        N  0.03033482  0.40191137  0.76326004    -0.58840
N322        N  0.99116241  0.42912108  0.84792693    -0.05700
N323        N  0.98103110  0.41127587  0.86985017    -0.61340
C324        C  0.00674944  0.40021256  0.88264001     0.95440
C325        C  0.00529331  0.38561605  0.75550283     0.95210
N326        N  0.93668550  0.50797108  0.77877788    -0.06930
N327        N  0.91042284  0.51718495  0.76706083    -0.59440
N328        N  0.94072085  0.47959466  0.84825409    -0.05050
N329        N  0.92273546  0.46955901  0.87016890    -0.60690
N330        N  0.94065191  0.50959762  0.84768877    -0.06960
N331        N  0.92266299  0.52067910  0.86907741    -0.59710
N332        N  0.93785903  0.47781654  0.77873530    -0.04690
N333        N  0.91279639  0.46648604  0.76658300    -0.60780
Mn334      Mn  0.96460239  0.45272062  0.81310591     1.18440
C335        C  0.89574102  0.49110216  0.75940650     0.97520
C336        C  0.91186356  0.49545172  0.88299422     0.98180
N337        N  0.07080259  0.47903152  0.77618511    -0.06980
N338        N  0.09497224  0.46815850  0.76209521    -0.63280
N339        N  0.07054074  0.50936183  0.84589236    -0.05780
N340        N  0.08786203  0.51964699  0.86831239    -0.63960
N341        N  0.07035740  0.47936270  0.84572562    -0.06480
N342        N  0.08741425  0.46849630  0.86798197    -0.63550
N343        N  0.07164930  0.50915399  0.77643298    -0.05380
N344        N  0.09670759  0.51882447  0.76277618    -0.64240
Mn345      Mn  0.04577141  0.45317780  0.81120269     1.10660
C346        C  0.11104961  0.49305636  0.75361480     0.98740
C347        C  0.09798558  0.49383687  0.88190513     0.98820
N348        N  0.99054817  0.56030998  0.84637346    -0.06490
N349        N  0.98034888  0.57838821  0.86824579    -0.61860
N350        N  0.01921370  0.56148277  0.77674749    -0.05810
N351        N  0.02863655  0.58705361  0.76378891    -0.58590
N352        N  0.98913466  0.56048301  0.77661950    -0.07120
N353        N  0.97805503  0.58512076  0.76329903    -0.61430
N354        N  0.02047842  0.56025763  0.84610007    -0.06110
N355        N  0.03133658  0.57828522  0.86770162    -0.58620
Mn356      Mn  0.96402271  0.53488135  0.81191056     1.20190
Mn357      Mn  0.04586932  0.53541927  0.81092784     1.10090
Cl358      Cl  0.00502231  0.49410398  0.81079707    -0.86590
C359        C  0.00605225  0.58926795  0.88141144     0.95750
C360        C  0.00278140  0.60164315  0.75538816     0.95540
N361        N  0.15655633  0.42545220  0.01538906    -0.06740
N362        N  0.13536564  0.40698325  0.02616484    -0.58860
N363        N  0.22499377  0.42350532  0.98326899    -0.06420
N364        N  0.23759620  0.39876382  0.97171201    -0.60990
N365        N  0.22556887  0.42231016  0.01337340    -0.06020
N366        N  0.23821527  0.39635237  0.02233247    -0.58840
N367        N  0.15577205  0.42593085  0.98541617    -0.05700
N368        N  0.13407671  0.40782871  0.97509468    -0.61340
C369        C  0.12146146  0.39639759  0.00073031     0.95440
C370        C  0.24608396  0.38197468  0.99612853     0.95210
N371        N  0.22476113  0.50541505  0.93193665    -0.06930
N372        N  0.23780061  0.51598190  0.90701203    -0.59440
N373        N  0.15495475  0.47695477  0.93534346    -0.05050
N374        N  0.13324742  0.46710990  0.91697415    -0.60690
N375        N  0.15564375  0.50693210  0.93562084    -0.06960
N376        N  0.13445442  0.51824713  0.91748651    -0.59710
N377        N  0.22399597  0.47534811  0.93121006    -0.04690
N378        N  0.23633198  0.46529998  0.90558082    -0.60780
Mn379      Mn  0.19022285  0.45018614  0.95861996     1.18440
C380        C  0.24522620  0.49083965  0.89070779     0.97520
C381        C  0.12057623  0.49313001  0.90627705     0.98180
N382        N  0.22794775  0.47502008  0.06605185    -0.06980
N383        N  0.24235332  0.46483504  0.09051734    -0.63280
N384        N  0.15918452  0.50603234  0.06611371    -0.05780
N385        N  0.13749611  0.51679502  0.08398125    -0.63960
N386        N  0.15870571  0.47600523  0.06590679    -0.06480
N387        N  0.13672584  0.46566297  0.08361026    -0.63550
N388        N  0.22868512  0.50515595  0.06557712    -0.05380
N389        N  0.24386171  0.51553638  0.08942027    -0.64240
Mn390      Mn  0.19259889  0.44933156  0.04062354     1.10660
C391        C  0.25261981  0.49026253  0.10481633     0.98740
C392        C  0.12364832  0.49134562  0.09453772     0.98820
N393        N  0.15800474  0.55686272  0.98614137    -0.06490
N394        N  0.13617747  0.57495368  0.97603983    -0.61860
N395        N  0.22794574  0.55782352  0.01396904    -0.05810
N396        N  0.24278166  0.58262582  0.02284578    -0.58590
N397        N  0.22767753  0.55628776  0.98394759    -0.07120
N398        N  0.24276846  0.57942984  0.97223052    -0.61430
N399        N  0.15865909  0.55690065  0.01609589    -0.06110
N400        N  0.13732461  0.57504435  0.02713452    -0.58620
Mn401      Mn  0.19183701  0.53160583  0.95927901     1.20190
Mn402      Mn  0.19397169  0.53185773  0.04088702     1.10090
Cl403      Cl  0.19296688  0.49065914  0.99994737    -0.86590
C404        C  0.12341849  0.58592035  0.00184707     0.95750
C405        C  0.25237627  0.59578220  0.99653413     0.95540
N406        N  0.01988027  0.55730766  0.15256355    -0.06740
N407        N  0.03023131  0.57563563  0.13106605    -0.58860
N408        N  0.99005836  0.55800480  0.22218086    -0.06420
N409        N  0.97943450  0.58253475  0.23606232    -0.60990
N410        N  0.02011139  0.55858703  0.22184442    -0.06020
N411        N  0.03001959  0.58372590  0.23530510    -0.58840
N412        N  0.98995922  0.55738159  0.15276202    -0.05700
N413        N  0.97921840  0.57573521  0.13140363    -0.61340
C414        C  0.00461133  0.58674349  0.11798724     0.95440
C415        C  0.00448346  0.59841967  0.24448697     0.95210
N416        N  0.93678884  0.47595286  0.22038640    -0.06930
N417        N  0.91080211  0.46622582  0.23217211    -0.59440
N418        N  0.94009126  0.50708466  0.15190948    -0.05050
N419        N  0.92286415  0.51825672  0.12992507    -0.60690
N420        N  0.93980469  0.47709895  0.15135416    -0.06960
N421        N  0.92235450  0.46709616  0.12897528    -0.59710
N422        N  0.93785416  0.50605634  0.22123988    -0.04690
N423        N  0.91286028  0.51681884  0.23391506    -0.60780
Mn424      Mn  0.96427083  0.53232759  0.18746117     1.18440
C425        C  0.89602709  0.49191261  0.24078598     0.97520
C426        C  0.91220755  0.49304418  0.11578171     0.98180
N427        N  0.07244711  0.50591717  0.22120424    -0.06980
N428        N  0.09850357  0.51523542  0.23326506    -0.63280
N429        N  0.06991706  0.47645512  0.15191168    -0.05780
N430        N  0.08818536  0.46589182  0.13046828    -0.63960
N431        N  0.07021725  0.50647057  0.15213117    -0.06480
N432        N  0.08873980  0.51702268  0.13091805    -0.63550
N433        N  0.07119163  0.47578475  0.22154135    -0.05380
N434        N  0.09600872  0.46459038  0.23432089    -0.64240
Mn435      Mn  0.04595638  0.53237394  0.18730212     1.10660
C436        C  0.11304924  0.48925109  0.24144871     0.98740
C437        C  0.09956834  0.49145098  0.11751822     0.98820
N438        N  0.98933788  0.42624124  0.15116777    -0.06490
N439        N  0.97867339  0.40845164  0.12933505    -0.61860
N440        N  0.01899774  0.42399998  0.22085266    -0.05810
N441        N  0.02940551  0.39965790  0.23524385    -0.58590
N442        N  0.98895724  0.42364133  0.22042800    -0.07120
N443        N  0.97877088  0.39887717  0.23429589    -0.61430
N444        N  0.01925694  0.42606137  0.15127814    -0.06110
N445        N  0.02969010  0.40804571  0.12950599    -0.58620
Mn446      Mn  0.96342939  0.45040478  0.18621119     1.20190
Mn447      Mn  0.04510215  0.45030899  0.18674056     1.10090
Cl448      Cl  0.00471969  0.49135052  0.18753622    -0.86590
C449        C  0.00408617  0.39747187  0.11594887     0.95750
C450        C  0.00417328  0.38420861  0.24393758     0.95540
N451        N  0.93873552  0.34128838  0.01177861    -0.06740
N452        N  0.92106791  0.36322789  0.02236789    -0.58860
N453        N  0.93491749  0.27239319  0.98056805    -0.06420
N454        N  0.90939827  0.26044436  0.96977249    -0.60990
N455        N  0.93460846  0.27204805  0.01069328    -0.06020
N456        N  0.90896541  0.25978419  0.02045832    -0.58840
N457        N  0.93901340  0.34158440  0.98180928    -0.05700
N458        N  0.92151581  0.36375838  0.97128453    -0.61340
C459        C  0.91071042  0.37713250  0.99687354     0.95440
C460        C  0.89333529  0.25250354  0.99483890     0.95210
N461        N  0.01847777  0.27030886  0.93082854    -0.06930
N462        N  0.02948342  0.25716552  0.90614820    -0.59440
N463        N  0.99048087  0.34060916  0.93304518    -0.05050
N464        N  0.98068505  0.36312939  0.91572207    -0.60690
N465        N  0.02039627  0.33980789  0.93348131    -0.06960
N466        N  0.03169445  0.36183681  0.91629878    -0.59710
N467        N  0.98847307  0.27156200  0.92920711    -0.04690
N468        N  0.97906917  0.25955686  0.90308902    -0.60780
Mn469      Mn  0.96296429  0.30609773  0.95585730     1.18440
C470        C  0.00485928  0.25039729  0.88886171     0.97520
C471        C  0.00657238  0.37622419  0.90564301     0.98180
N472        N  0.98572834  0.26959273  0.06424808    -0.06980
N473        N  0.97410371  0.25706088  0.08901475    -0.63280
N474        N  0.01810118  0.33826497  0.06392501    -0.05780
N475        N  0.02901865  0.35963999  0.08212972    -0.63960
N476        N  0.98819610  0.33924581  0.06320218    -0.06480
N477        N  0.97803707  0.36137312  0.08093459    -0.63550
N478        N  0.01577768  0.26907152  0.06571890    -0.05380
N479        N  0.02463226  0.25650871  0.09172631    -0.64240
Mn480      Mn  0.96160404  0.30514022  0.03770437     1.10660
C481        C  0.99845903  0.24898665  0.10610812     0.98740
C482        C  0.00376998  0.37392923  0.09236867     0.98820
N483        N  0.06966344  0.33751023  0.98485901    -0.06490
N484        N  0.08770022  0.35933430  0.97475299    -0.61860
N485        N  0.06867893  0.26750742  0.01424723    -0.05810
N486        N  0.09231278  0.25225772  0.02503452    -0.58590
N487        N  0.06950045  0.26798469  0.98415970    -0.07120
N488        N  0.09379991  0.25313885  0.97433863    -0.61430
N489        N  0.06935085  0.33716531  0.01482273    -0.06110
N490        N  0.08723875  0.35878423  0.02584956    -0.58620
Mn491      Mn  0.04481146  0.30350789  0.95804031     1.20190
Mn492      Mn  0.04328253  0.30258095  0.03993500     1.10090
Cl493      Cl  0.00313150  0.30366398  0.99788083    -0.86590
C494        C  0.09831430  0.37245893  0.00054478     0.95750
C495        C  0.10772890  0.24296938  0.99998177     0.95540
N496        N  0.94083608  0.64860050  0.98491272    -0.06740
N497        N  0.92252313  0.62718676  0.97417900    -0.58860
N498        N  0.94036749  0.71793355  0.01503287    -0.06420
N499        N  0.91530969  0.73190555  0.02430439    -0.60990
N500        N  0.94164898  0.71846147  0.98495067    -0.06020
N501        N  0.91778323  0.73306632  0.97381106    -0.58840
N502        N  0.94060186  0.64846123  0.01489733    -0.05700
N503        N  0.92222768  0.62704844  0.02527281    -0.61340
C504        C  0.91130127  0.61389851  0.99965928     0.95440
C505        C  0.90148787  0.74180976  0.99845050     0.95210
N506        N  0.02165808  0.71512695  0.06929951    -0.06930
N507        N  0.03176196  0.72797732  0.09466572    -0.59440
N508        N  0.99024620  0.64642578  0.06622755    -0.05050
N509        N  0.97930293  0.62463689  0.08395130    -0.60690
N510        N  0.02017926  0.64586043  0.06644549    -0.06960
N511        N  0.03031212  0.62377628  0.08419193    -0.59710
N512        N  0.99160269  0.71574587  0.06876700    -0.04690
N513        N  0.98119033  0.72882192  0.09381666    -0.60780
Mn514      Mn  0.96536639  0.68252783  0.04152005     1.18440
C515        C  0.00635221  0.73681767  0.10975706     0.97520
C516        C  0.00462092  0.61065506  0.09475568     0.98180
N517        N  0.99439594  0.71686339  0.93373322    -0.06980
N518        N  0.98568605  0.73092891  0.90846127    -0.63280
N519        N  0.02203088  0.64665137  0.93552598    -0.05780
N520        N  0.03218974  0.62506114  0.91707870    -0.63960
N521        N  0.99210258  0.64743521  0.93506210    -0.06480
N522        N  0.98121864  0.62644622  0.91634205    -0.63550
N523        N  0.02439569  0.71640283  0.93538379    -0.05380
N524        N  0.03622827  0.73042548  0.91161422    -0.64240
Mn525      Mn  0.96690613  0.68316568  0.95936807     1.10660
C526        C  0.01200874  0.73966322  0.89495200     0.98740
C527        C  0.00646721  0.61256465  0.90547549     0.98820
N528        N  0.07136180  0.64488469  0.01713620    -0.06490
N529        N  0.08912700  0.62294187  0.02769878    -0.61860
N530        N  0.07560489  0.71426843  0.98793336    -0.05810
N531        N  0.10133065  0.72679165  0.97848423    -0.58590
N532        N  0.07466938  0.71430534  0.01802276    -0.07120
N533        N  0.09966698  0.72684298  0.02915124    -0.61430
N534        N  0.07153980  0.64499350  0.98716514    -0.06110
N535        N  0.08936939  0.62319728  0.97660093    -0.58620
Mn536      Mn  0.04719089  0.68044208  0.04296072     1.20190
Mn537      Mn  0.04860132  0.68088184  0.96124938     1.10090
Cl538      Cl  0.00699303  0.68259655  0.00130111    -0.86590
C539        C  0.09995287  0.60954837  0.00211427     0.95750
C540        C  0.11612956  0.73478842  0.00438447     0.95540
N541        N  0.49132724  0.83894930  0.93149714    -0.06740
N542        N  0.48056872  0.86066708  0.91366260    -0.58860
N543        N  0.52331253  0.77024311  0.93030515    -0.06420
N544        N  0.53504931  0.75806607  0.90543325    -0.60990
N545        N  0.49325299  0.76997010  0.92860832    -0.06020
N546        N  0.48456024  0.75804039  0.90224705    -0.58840
N547        N  0.52124906  0.83972406  0.93226027    -0.05700
N548        N  0.53157017  0.86201592  0.91488823    -0.61340
C549        C  0.50591680  0.87490391  0.90369908     0.95440
C550        C  0.51082638  0.75065933  0.88792596     0.95210
N551        N  0.57418294  0.77138060  0.01355733    -0.06930
N552        N  0.59930278  0.75852529  0.02424502    -0.59440
N553        N  0.57102204  0.84086631  0.98353003    -0.05050
N554        N  0.58919805  0.86258527  0.97333182    -0.60690
N555        N  0.57063281  0.84071253  0.01350613    -0.06960
N556        N  0.58851861  0.86238626  0.02441290    -0.59710
N557        N  0.57474583  0.77168468  0.98345573    -0.04690
N558        N  0.60025093  0.75913936  0.97357631    -0.60780
Mn559      Mn  0.54775661  0.80525338  0.95712873     1.18440
C560        C  0.61533848  0.75052514  0.99910058     0.97520
C561        C  0.59972613  0.87591962  0.99907808     0.98180
N562        N  0.43963685  0.76802153  0.97997044    -0.06980
N563        N  0.41552243  0.75314486  0.96958974    -0.63280
N564        N  0.43945679  0.83774639  0.01019324    -0.05780
N565        N  0.42117761  0.85925255  0.02063723    -0.63960
N566        N  0.43969383  0.83776154  0.98023139    -0.06480
N567        N  0.42155147  0.85935206  0.96954378    -0.63550
N568        N  0.43933910  0.76827850  0.01004190    -0.05380
N569        N  0.41513405  0.75370755  0.02026559    -0.64240
Mn570      Mn  0.46566209  0.80322283  0.95472762     1.10660
C571        C  0.40048609  0.74388701  0.99497541     0.98740
C572        C  0.41036168  0.87262421  0.99504940     0.98820
N573        N  0.51872119  0.83929755  0.06213830    -0.06490
N574        N  0.52834571  0.86159718  0.07989131    -0.61860
N575        N  0.49012385  0.76896235  0.06245626    -0.05810
N576        N  0.47875683  0.75456123  0.08624132    -0.58590
N577        N  0.52011193  0.76997612  0.06434627    -0.07120
N578        N  0.52922119  0.75663002  0.08986778    -0.61430
N579        N  0.48881255  0.83861384  0.06137582    -0.06110
N580        N  0.47733882  0.86043215  0.07866690    -0.58620
Mn581      Mn  0.54619591  0.80493428  0.03878126     1.20190
Mn582      Mn  0.46424301  0.80307905  0.03628501     1.10090
Cl583      Cl  0.50601104  0.80350191  0.99670430    -0.86590
C584        C  0.50230712  0.87461542  0.08980166     0.95750
C585        C  0.50318487  0.74697646  0.10333665     0.95540
N586        N  0.57061677  0.00740348  0.84647818    -0.06740
N587        N  0.58823219  0.01795818  0.86846374    -0.58860
N588        N  0.57249583  0.97775512  0.77646672    -0.06420
N589        N  0.59701827  0.96674329  0.76309407    -0.60990
N590        N  0.57373022  0.00786665  0.77730361    -0.06020
N591        N  0.59951094  0.01738191  0.76482654    -0.58840
N592        N  0.57089717  0.97741473  0.84611261    -0.05700
N593        N  0.58880586  0.96681985  0.86794054    -0.61340
C594        C  0.59921874  0.99242363  0.88173114     0.95440
C595        C  0.61376295  0.99150709  0.75563741     0.95210
N596        N  0.49044823  0.92562037  0.77601344    -0.06930
N597        N  0.48006906  0.90112433  0.76187902    -0.59440
N598        N  0.52043892  0.92734533  0.84531458    -0.05050
N599        N  0.53112280  0.90949790  0.86706028    -0.60690
N600        N  0.49051068  0.92721684  0.84526571    -0.06960
N601        N  0.48008787  0.90920662  0.86698102    -0.59710
N602        N  0.52048824  0.92561683  0.77591082    -0.04690
N603        N  0.53066418  0.90112735  0.76151432    -0.60780
Mn604      Mn  0.54636336  0.95175327  0.81055186     1.18440
C605        C  0.50523854  0.88605816  0.75248955     0.97520
C606        C  0.50569731  0.89857867  0.88042479     0.98180
N607        N  0.52124765  0.06039941  0.77745030    -0.06980
N608        N  0.53162413  0.08606595  0.76553015    -0.63280
N609        N  0.49013181  0.05743075  0.84615172    -0.05780
N610        N  0.47901066  0.07535104  0.86758807    -0.63960
N611        N  0.52006972  0.05776478  0.84661669    -0.06480
N612        N  0.53001838  0.07600716  0.86847129    -0.63550
N613        N  0.49116282  0.06041096  0.77719490    -0.05380
N614        N  0.48106326  0.08612401  0.76514407    -0.64240
Mn615      Mn  0.54671242  0.03363692  0.81157817     1.10660
C616        C  0.50643364  0.10203055  0.75783453     0.98740
C617        C  0.50411392  0.08655660  0.88140226     0.98820
N618        N  0.43978370  0.97726760  0.84509661    -0.06490
N619        N  0.42131227  0.96649883  0.86622700    -0.61860
N620        N  0.43912686  0.00783386  0.77554819    -0.05810
N621        N  0.41517304  0.01860987  0.76085724    -0.58590
N622        N  0.43835758  0.97772257  0.77584352    -0.07120
N623        N  0.41364651  0.96787658  0.76161249    -0.61430
N624        N  0.43962483  0.00725663  0.84517365    -0.06110
N625        N  0.42100973  0.01763119  0.86643200    -0.58620
Mn626      Mn  0.46449820  0.95164082  0.81023205     1.20190
Mn627      Mn  0.46475800  0.03344620  0.81059745     1.10090
Cl628      Cl  0.50560161  0.99265860  0.80979276    -0.86590
C629        C  0.40997790  0.99192872  0.87944480     0.95750
C630        C  0.39947663  0.99356425  0.75187231     0.95540
N631        N  0.51664691  0.14598023  0.93361690    -0.06740
N632        N  0.52808531  0.12429712  0.91613220    -0.58860
N633        N  0.48573275  0.21489773  0.93151390    -0.06420
N634        N  0.47623600  0.22812428  0.90608293    -0.60990
N635        N  0.51580417  0.21525685  0.93266006    -0.06020
N636        N  0.52676328  0.22864224  0.90803578    -0.58840
N637        N  0.48672730  0.14548880  0.93276114    -0.05700
N638        N  0.47709009  0.12343715  0.91463723    -0.61340
C639        C  0.50313591  0.11037879  0.90465527     0.95440
C640        C  0.50201441  0.23689518  0.89159801     0.95210
N641        N  0.43111997  0.21287749  0.01267299    -0.06930
N642        N  0.40581776  0.22572411  0.02261409    -0.59440
N643        N  0.43506695  0.14416340  0.98187616    -0.05050
N644        N  0.41790372  0.12204139  0.97078000    -0.60690
N645        N  0.43451855  0.14383940  0.01185412    -0.06960
N646        N  0.41709159  0.12155360  0.02189308    -0.59710
N647        N  0.43175218  0.21350454  0.98255885    -0.04690
N648        N  0.40684799  0.22691986  0.97199469    -0.60780
Mn649      Mn  0.45945347  0.17993115  0.95680956     1.18440
C650        C  0.39085738  0.23482895  0.99721235     0.97520
C651        C  0.40712390  0.10812501  0.99606573     0.98180
N652        N  0.56698791  0.21487635  0.98680958    -0.06980
N653        N  0.59296638  0.22776982  0.97850201    -0.63280
N654        N  0.56415816  0.14469267  0.01514529    -0.05780
N655        N  0.58183575  0.12272591  0.02579645    -0.63960
N656        N  0.56526569  0.14546901  0.98521753    -0.06480
N657        N  0.58368651  0.12409340  0.97475890    -0.63550
N658        N  0.56501939  0.21454336  0.01684915    -0.05380
N659        N  0.58921129  0.22757752  0.02906167    -0.64240
Mn660      Mn  0.54144268  0.18089349  0.95929978     1.10660
C661        C  0.60655481  0.23585695  0.00507247     0.98740
C662        C  0.59367258  0.11003110  0.00030882     0.98820
N663        N  0.48293958  0.14348198  0.06391675    -0.06490
N664        N  0.47249046  0.12182901  0.08207902    -0.61860
N665        N  0.51200293  0.21305271  0.06671179    -0.05810
N666        N  0.52220425  0.22689661  0.09135569    -0.58590
N667        N  0.48197369  0.21285874  0.06664930    -0.07120
N668        N  0.47157247  0.22643869  0.09154404    -0.61430
N669        N  0.51284687  0.14372384  0.06419553    -0.06110
N670        N  0.52350134  0.12232131  0.08247556    -0.58620
Mn671      Mn  0.45727431  0.17867286  0.03903801     1.20190
Mn672      Mn  0.53867483  0.17930775  0.04087210     1.10090
Cl673      Cl  0.49917079  0.18036984  0.99898314    -0.86590
C674        C  0.49811003  0.10875914  0.09325094     0.95750
C675        C  0.49696176  0.23562355  0.10661877     0.95540
N676        N  0.48615515  0.92609209  0.14875845    -0.06740
N677        N  0.47583103  0.90819879  0.12681839    -0.58860
N678        N  0.51732240  0.92350262  0.21810912    -0.06420
N679        N  0.52910244  0.89897728  0.23089623    -0.60990
N680        N  0.48734693  0.92176282  0.21788499    -0.06020
N681        N  0.47856836  0.89553275  0.23000126    -0.58840
N682        N  0.51604028  0.92677132  0.14857070    -0.05700
N683        N  0.52684907  0.90947041  0.12650946    -0.61340
C684        C  0.50153502  0.89827568  0.11308166     0.95440
C685        C  0.50486734  0.88154998  0.23815600     0.95210
N686        N  0.56900487  0.00498087  0.21915237    -0.06930
N687        N  0.59464934  0.01414715  0.23216889    -0.59440
N688        N  0.56562028  0.97718564  0.14925506    -0.05050
N689        N  0.58394063  0.96712429  0.12765659    -0.60690
N690        N  0.56550269  0.00715308  0.14993578    -0.06960
N691        N  0.58379822  0.01826162  0.12882582    -0.59710
N692        N  0.56806531  0.97489713  0.21863989    -0.04690
N693        N  0.59264128  0.96336721  0.23154195    -0.60780
Mn694      Mn  0.54185782  0.95044719  0.18394243     1.18440
C695        C  0.60907456  0.98793939  0.24002119     0.97520
C696        C  0.59487705  0.99299742  0.11502813     0.98180
N697        N  0.43501388  0.97350707  0.22037504    -0.06980
N698        N  0.41082901  0.96181025  0.23374475    -0.63280
N699        N  0.43477682  0.00588312  0.15205209    -0.05780
N700        N  0.41710728  0.01669297  0.13015143    -0.63960
N701        N  0.43545689  0.97589025  0.15113333    -0.06480
N702        N  0.41829705  0.96558063  0.12866559    -0.63550
N703        N  0.43400930  0.00362770  0.22152394    -0.05380
N704        N  0.40889577  0.01241880  0.23571906    -0.64240
Mn705      Mn  0.46062837  0.94904690  0.18488714     1.10660
C706        C  0.39465068  0.98607842  0.24353833     0.98740
C707        C  0.40719698  0.99125513  0.11574285     0.98820
N708        N  0.51441851  0.05697865  0.15219107    -0.06490
N709        N  0.52438339  0.07491483  0.13018721    -0.61860
N710        N  0.48614181  0.05758067  0.22182984    -0.05810
N711        N  0.47698011  0.08319466  0.23505624    -0.58590
N712        N  0.51621926  0.05649594  0.22172826    -0.07120
N713        N  0.52750510  0.08082270  0.23535586    -0.61430
N714        N  0.48447386  0.05683637  0.15270578    -0.06110
N715        N  0.47337250  0.07465204  0.13108289    -0.58620
Mn716      Mn  0.54151707  0.03176002  0.18611785     1.20190
Mn717      Mn  0.45938357  0.03139183  0.18754500     1.10090
Cl718      Cl  0.50081803  0.99071293  0.18621931    -0.86590
C719        C  0.49854780  0.08557216  0.11718312     0.95750
C720        C  0.50301057  0.09740920  0.24381155     0.95540
N721        N  0.35147177  0.92517229  0.98058533    -0.06740
N722        N  0.37311512  0.90723511  0.96976362    -0.58860
N723        N  0.28287702  0.92138091  0.01090734    -0.06420
N724        N  0.27184744  0.89482190  0.02016312    -0.60990
N725        N  0.28194672  0.92285431  0.98081912    -0.06020
N726        N  0.26966184  0.89778290  0.96962920    -0.58840
N727        N  0.35174680  0.92499118  0.01056119    -0.05700
N728        N  0.37353277  0.90692976  0.02084346    -0.61340
C729        C  0.38675442  0.89622520  0.99515536     0.95440
C730        C  0.26363489  0.88024916  0.99418038     0.95210
N731        N  0.28080937  0.00421216  0.06263215    -0.06930
N732        N  0.26798018  0.01497886  0.08758088    -0.59440
N733        N  0.35086428  0.97544534  0.06122665    -0.05050
N734        N  0.37220231  0.96531161  0.07985853    -0.60690
N735        N  0.35011068  0.00543841  0.06136995    -0.06960
N736        N  0.37095875  0.01643060  0.08014824    -0.59710
N737        N  0.28211703  0.97408475  0.06382515    -0.04690
N738        N  0.27071255  0.96439162  0.09003564    -0.60780
Mn739      Mn  0.31651259  0.94868075  0.03689764     1.18440
C740        C  0.26192816  0.99013129  0.10470945     0.97520
C741        C  0.38462817  0.99111293  0.09126440     0.98180
N742        N  0.28092486  0.97474144  0.92883877    -0.06980
N743        N  0.26861049  0.96390075  0.90358344    -0.63280
N744        N  0.34989889  0.00590799  0.93039442    -0.05780
N745        N  0.37169799  0.01688191  0.91283090    -0.63960
N746        N  0.35049422  0.97593014  0.93050594    -0.06480
N747        N  0.37273302  0.96574649  0.91300402    -0.63550
N748        N  0.28075792  0.00487181  0.92823067    -0.05380
N749        N  0.26870409  0.01460196  0.90233095    -0.64240
Mn750      Mn  0.31582689  0.94948224  0.95499986     1.10660
C751        C  0.26114503  0.98885983  0.88708065     0.98740
C752        C  0.38580302  0.99155741  0.90232960     0.98820
N753        N  0.34917806  0.05549479  0.01073862    -0.06490
N754        N  0.37087858  0.07338529  0.02133817    -0.61860
N755        N  0.27972523  0.05676074  0.98082282    -0.05810
N756        N  0.26559549  0.08135509  0.97059594    -0.58590
N757        N  0.28014405  0.05693492  0.01091775    -0.07120
N758        N  0.26658496  0.08181610  0.02124622    -0.61430
N759        N  0.34899375  0.05572729  0.98078098    -0.06110
N760        N  0.37058442  0.07375778  0.97021190    -0.58620
Mn761      Mn  0.31466219  0.03075350  0.03664861     1.20190
Mn762      Mn  0.31440722  0.03109233  0.95481232     1.10090
Cl763      Cl  0.31437157  0.98995588  0.99590148    -0.86590
C764        C  0.38407398  0.08435434  0.99579631     0.95750
C765        C  0.25713489  0.09681827  0.99597130     0.95540
N766        N  0.65530407  0.00918636  0.06545711    -0.06740
N767        N  0.63261678  0.01931057  0.08237223    -0.58860
N768        N  0.72516300  0.98105079  0.06896238    -0.06420
N769        N  0.73838120  0.97187419  0.09456853    -0.60990
N770        N  0.72462485  0.01120536  0.06799220    -0.06020
N771        N  0.73771319  0.02258396  0.09259868    -0.58840
N772        N  0.65597046  0.97919256  0.06547994    -0.05700
N773        N  0.63373054  0.96817785  0.08242777    -0.61340
C774        C  0.61932652  0.99347656  0.09258143     0.95440
C775        C  0.74654476  0.99800452  0.10901109     0.95210
N776        N  0.72801108  0.92888738  0.98618064    -0.06930
N777        N  0.74084695  0.90386440  0.97541507    -0.59440
N778        N  0.65799161  0.92862280  0.01513680    -0.05050
N779        N  0.63627686  0.91043158  0.02527340    -0.60690
N780        N  0.65853373  0.92864798  0.98514464    -0.06960
N781        N  0.63710983  0.91050260  0.97419367    -0.59710
N782        N  0.72693304  0.92771165  0.01631514    -0.04690
N783        N  0.73857171  0.90151483  0.02597304    -0.60780
Mn784      Mn  0.69196260  0.95385571  0.04185911     1.18440
C785        C  0.74723312  0.88679167  0.00026125     0.97520
C786        C  0.62337533  0.89947847  0.99948926     0.98180
N787        N  0.72331265  0.06371477  0.01601773    -0.06980
N788        N  0.73676774  0.08863715  0.02635008    -0.63280
N789        N  0.65394006  0.05944673  0.98561668    -0.05780
N790        N  0.63166622  0.07667714  0.97495878    -0.63960
N791        N  0.65391382  0.05951723  0.01557258    -0.06480
N792        N  0.63154993  0.07671165  0.02605718    -0.63550
N793        N  0.72319952  0.06385771  0.98595751    -0.05380
N794        N  0.73656276  0.08882247  0.97563312    -0.64240
Mn795      Mn  0.68973044  0.03616164  0.04155623     1.10660
C796        C  0.74524082  0.10413236  0.00098491     0.98740
C797        C  0.61780028  0.08703843  0.00045452     0.98820
N798        N  0.65774422  0.97904110  0.93479156    -0.06490
N799        N  0.63673538  0.96774747  0.91637289    -0.61860
N800        N  0.72579804  0.01203820  0.93480408    -0.05810
N801        N  0.74017932  0.02380393  0.91123728    -0.58590
N802        N  0.72717765  0.98196740  0.93395334    -0.07120
N803        N  0.74246534  0.97316382  0.90944482    -0.61430
N804        N  0.65648261  0.00900658  0.93512634    -0.06110
N805        N  0.63463360  0.01884112  0.91692274    -0.58620
Mn806      Mn  0.69335982  0.95434365  0.95969958     1.20190
Mn807      Mn  0.69008844  0.03629308  0.96012575     1.10090
Cl808      Cl  0.69228509  0.99508061  0.00086491    -0.86590
C809        C  0.62244133  0.99286773  0.90561192     0.95750
C810        C  0.75079109  0.99956213  0.89552356     0.95540
N811        N  0.02090918  0.84016854  0.56492832    -0.06740
N812        N  0.03158736  0.86195672  0.58282371    -0.58860
N813        N  0.99193816  0.77065124  0.56915555    -0.06420
N814        N  0.98311311  0.75920000  0.59565802    -0.60990
N815        N  0.02199386  0.77061005  0.56759956    -0.06020
N816        N  0.03361948  0.75855962  0.59259315    -0.58840
N817        N  0.99098672  0.83972044  0.56564741    -0.05700
N818        N  0.98061145  0.86123089  0.58402343    -0.61340
C819        C  0.00619274  0.87498939  0.59436019     0.95440
C820        C  0.00933371  0.75167042  0.61010598     0.95210
N821        N  0.93988513  0.76760926  0.48671253    -0.06930
N822        N  0.91596254  0.75323456  0.47565717    -0.59440
N823        N  0.94019436  0.83793030  0.51569199    -0.05050
N824        N  0.92214254  0.85959503  0.52612671    -0.60690
N825        N  0.93990211  0.83743268  0.48571610    -0.06960
N826        N  0.92152672  0.85880783  0.47503384    -0.59710
N827        N  0.93842688  0.76876556  0.51677119    -0.04690
N828        N  0.91279524  0.75579690  0.52615697    -0.60780
Mn829      Mn  0.96504087  0.80381909  0.54214186     1.18440
C830        C  0.89906451  0.74578052  0.50024558     0.97520
C831        C  0.91085944  0.87248940  0.50053957     0.98180
N832        N  0.07327118  0.77047221  0.51529810    -0.06980
N833        N  0.09838512  0.75791586  0.52615188    -0.63280
N834        N  0.07035868  0.83917390  0.48354037    -0.05780
N835        N  0.08793330  0.86086995  0.47230813    -0.63960
N836        N  0.07050526  0.83993043  0.51350814    -0.06480
N837        N  0.08824622  0.86216011  0.52339179    -0.63550
N838        N  0.07352180  0.76993051  0.48518362    -0.05380
N839        N  0.09900229  0.75716469  0.47542529    -0.64240
Mn840      Mn  0.04685988  0.80498006  0.54051454     1.10660
C841        C  0.11431555  0.74963936  0.50116853     0.98740
C842        C  0.09871614  0.87508544  0.49744508     0.98820
N843        N  0.98965654  0.83721073  0.43454936    -0.06490
N844        N  0.97852518  0.85885892  0.41677551    -0.61860
N845        N  0.02058092  0.76790979  0.43327686    -0.05810
N846        N  0.03017303  0.75344532  0.40857680    -0.58590
N847        N  0.99057286  0.76742641  0.43434355    -0.07120
N848        N  0.97960463  0.75237713  0.41067748    -0.61430
N849        N  0.01956792  0.83748476  0.43394599    -0.06110
N850        N  0.02953278  0.85936588  0.41583550    -0.58620
Mn851      Mn  0.96475909  0.80212566  0.46010124     1.20190
Mn852      Mn  0.04631338  0.80319046  0.45865075     1.10090
Cl853      Cl  0.00574096  0.80262875  0.50041365    -0.86590
C854        C  0.00368268  0.87255243  0.40547337     0.95750
C855        C  0.00440890  0.74341933  0.39474348     0.95540
N856        N  0.85066348  0.00453243  0.43605065    -0.06740
N857        N  0.87189843  0.01515725  0.41763143    -0.58860
N858        N  0.78143980  0.97453883  0.43490666    -0.06420
N859        N  0.76833372  0.96481342  0.40944128    -0.60990
N860        N  0.78160969  0.00467903  0.43547856    -0.06020
N861        N  0.76857422  0.01544843  0.41062441    -0.58840
N862        N  0.85055515  0.97450996  0.43585799    -0.05700
N863        N  0.87179080  0.96401089  0.41731285    -0.61340
C864        C  0.88496626  0.98964110  0.40632891     0.95440
C865        C  0.76003064  0.99060292  0.39449832     0.95210
N866        N  0.78304427  0.92340958  0.51853498    -0.06930
N867        N  0.76926311  0.89924282  0.52991187    -0.59440
N868        N  0.85141772  0.92422581  0.48645164    -0.05050
N869        N  0.87292368  0.90625846  0.47547521    -0.60690
N870        N  0.85227532  0.92458094  0.51642075    -0.06960
N871        N  0.87438137  0.90684882  0.52654907    -0.59710
N872        N  0.78210105  0.92265407  0.48843266    -0.04690
N873        N  0.76761413  0.89778532  0.47928243    -0.60780
Mn874      Mn  0.81592466  0.94854371  0.46107127     1.18440
C875        C  0.75943216  0.88339246  0.50539900     0.97520
C876        C  0.88710590  0.89579803  0.50076293     0.98180
N877        N  0.78241907  0.05692960  0.48771790    -0.06980
N878        N  0.76821800  0.08168063  0.47793853    -0.63280
N879        N  0.85229723  0.05546343  0.51621767    -0.05780
N880        N  0.87384005  0.07379264  0.52649404    -0.63960
N881        N  0.85178814  0.05539545  0.48627065    -0.06480
N882        N  0.87301104  0.07374551  0.47540535    -0.63550
N883        N  0.78313056  0.05675287  0.51779627    -0.05380
N884        N  0.76949093  0.08129579  0.52861253    -0.64240
Mn885      Mn  0.81626147  0.03064751  0.46113336     1.10660
C886        C  0.75996663  0.09669849  0.50366582     0.98740
C887        C  0.88665057  0.08481442  0.50079058     0.98820
N888        N  0.85392259  0.97541810  0.56640612    -0.06490
N889        N  0.87620707  0.96517148  0.58383770    -0.61860
N890        N  0.78482098  0.00546974  0.57024467    -0.05810
N891        N  0.77183603  0.01628451  0.59512814    -0.58590
N892        N  0.78474675  0.97537810  0.57074873    -0.07120
N893        N  0.77155142  0.96556928  0.59603174    -0.61430
N894        N  0.85375305  0.00539654  0.56611027    -0.06110
N895        N  0.87588127  0.01634115  0.58324993    -0.58620
Mn896      Mn  0.81816721  0.94933476  0.54333066     1.20190
Mn897      Mn  0.81811499  0.03096588  0.54278313     1.10090
Cl898      Cl  0.81616575  0.98979554  0.50201689    -0.86590
C899        C  0.88974064  0.99099891  0.59389579     0.95750
C900        C  0.76317094  0.99132421  0.61100985     0.95540
N901        N  0.15704771  0.92781687  0.51155754    -0.06740
N902        N  0.13569285  0.90962375  0.52228102    -0.58860
N903        N  0.22628690  0.92778603  0.48017866    -0.06420
N904        N  0.24025748  0.90401796  0.46824569    -0.60990
N905        N  0.22613369  0.92574732  0.51020586    -0.06020
N906        N  0.23967587  0.90011230  0.51880166    -0.58840
N907        N  0.15668090  0.92810954  0.48157858    -0.05700
N908        N  0.13493567  0.90999792  0.47118433    -0.61340
C909        C  0.12199764  0.89887652  0.49688875     0.95440
C910        C  0.24877758  0.88687550  0.49238620     0.95210
N911        N  0.22521849  0.01068703  0.43082771    -0.06930
N912        N  0.23890699  0.02224905  0.40670873    -0.59440
N913        N  0.15578429  0.97966602  0.43233298    -0.05050
N914        N  0.13370519  0.96896622  0.41495031    -0.60690
N915        N  0.15560502  0.00966044  0.43255766    -0.06960
N916        N  0.13326019  0.02011545  0.41522162    -0.59710
N917        N  0.22496722  0.98062286  0.42925385    -0.04690
N918        N  0.23829788  0.97157968  0.40375684    -0.60780
Mn919      Mn  0.19125796  0.95373782  0.45554784     1.18440
C920        C  0.24706464  0.99777624  0.38987430     0.97520
C921        C  0.11976561  0.99440724  0.40463868     0.98180
N922        N  0.22696116  0.97698725  0.56315858    -0.06980
N923        N  0.24200355  0.96556753  0.58656767    -0.63280
N924        N  0.15725387  0.00723580  0.56348199    -0.05780
N925        N  0.13592812  0.01772457  0.58184933    -0.63960
N926        N  0.15735663  0.97722773  0.56321723    -0.06480
N927        N  0.13596059  0.96658741  0.58153222    -0.63550
N928        N  0.22644937  0.00706555  0.56478042    -0.05380
N929        N  0.24095843  0.01625560  0.58962956    -0.64240
Mn930      Mn  0.19220085  0.95162131  0.53739592     1.10660
C931        C  0.25098088  0.99015860  0.60289088     0.98740
C932        C  0.12273920  0.99216723  0.59274938     0.98820
N933        N  0.15607323  0.05884487  0.48395505    -0.06490
N934        N  0.13411477  0.07647480  0.47345319    -0.61860
N935        N  0.22548240  0.06038725  0.51395813    -0.05810
N936        N  0.23943127  0.08463831  0.52504014    -0.58590
N937        N  0.22528653  0.06136405  0.48389606    -0.07120
N938        N  0.23927743  0.08633431  0.47439713    -0.61430
N939        N  0.15617929  0.05858702  0.51393320    -0.06110
N940        N  0.13418836  0.07620144  0.52456509    -0.58620
Mn941      Mn  0.19089917  0.03546093  0.45749344     1.20190
Mn942      Mn  0.19166439  0.03366724  0.53939457     1.10090
Cl943      Cl  0.19201511  0.99361959  0.49746479    -0.86590
C944        C  0.12059375  0.08693651  0.49898639     0.95750
C945        C  0.24834313  0.10064542  0.50029223     0.95540
N946        N  0.93758720  0.14443166  0.48513938    -0.06740
N947        N  0.91995524  0.12230101  0.47486386    -0.58860
N948        N  0.93533721  0.21389422  0.51434032    -0.06420
N949        N  0.90953306  0.22606561  0.52406027    -0.60990
N950        N  0.93586024  0.21387329  0.48422562    -0.06020
N951        N  0.91080428  0.22641923  0.47343300    -0.58840
N952        N  0.93793157  0.14468526  0.51512225    -0.05700
N953        N  0.92048475  0.12267968  0.52596279    -0.61340
C954        C  0.90965726  0.10887011  0.50055909     0.95440
C955        C  0.89437607  0.23390045  0.49829277     0.95210
N956        N  0.01889417  0.21636943  0.56353159    -0.06930
N957        N  0.03072039  0.23079003  0.58708777    -0.59440
N958        N  0.98925827  0.14607462  0.56472002    -0.05050
N959        N  0.97928403  0.12426991  0.58287451    -0.60690
N960        N  0.01917541  0.14646090  0.56419768    -0.06960
N961        N  0.03029021  0.12482656  0.58201389    -0.59710
N962        N  0.98895103  0.21525986  0.56606430    -0.04690
N963        N  0.98045966  0.22827120  0.59202291    -0.60780
Mn964      Mn  0.96248732  0.18037039  0.54045736     1.18440
C965        C  0.00676127  0.23827063  0.60488049     0.97520
C966        C  0.00511169  0.11114553  0.59329399     0.98180
N967        N  0.98623349  0.21334775  0.43124717    -0.06980
N968        N  0.97494673  0.22761324  0.40724893    -0.63280
N969        N  0.01640691  0.14368869  0.43332615    -0.05780
N970        N  0.02658422  0.12188793  0.41525521    -0.63960
N971        N  0.98650233  0.14376129  0.43383206    -0.06480
N972        N  0.97556397  0.12196557  0.41612512    -0.63550
N973        N  0.01621763  0.21299877  0.42991098    -0.05380
N974        N  0.02553429  0.22680606  0.40477483    -0.64240
Mn975      Mn  0.96129702  0.17922485  0.45840362     1.10660
C976        C  0.99960080  0.23632939  0.39094922     0.98740
C977        C  0.00086134  0.10845243  0.40493951     0.98820
N978        N  0.06817715  0.14557920  0.51297592    -0.06490
N979        N  0.08634196  0.12423627  0.52395806    -0.61860
N980        N  0.06903572  0.21436653  0.48085352    -0.05810
N981        N  0.09373453  0.22695667  0.46928450    -0.58590
N982        N  0.07039717  0.21470466  0.51093593    -0.07120
N983        N  0.09635694  0.22716960  0.51991792    -0.61430
N984        N  0.06770778  0.14479925  0.48301423    -0.06110
N985        N  0.08560439  0.12283624  0.47286665    -0.58620
Mn986      Mn  0.04435053  0.18120334  0.53820044     1.20190
Mn987      Mn  0.04263205  0.17926313  0.45649472     1.10090
Cl988      Cl  0.00268771  0.18059172  0.49839075    -0.86590
C989        C  0.09681987  0.11016548  0.49867921     0.95750
C990        C  0.11074755  0.23480087  0.49373858     0.95540
N991        N  0.01729119  0.92610258  0.34744765    -0.06740
N992        N  0.02827296  0.90809039  0.36895929    -0.58860
N993        N  0.98756159  0.92281175  0.27801554    -0.06420
N994        N  0.97858238  0.89727113  0.26457583    -0.60990
N995        N  0.01756746  0.92435757  0.27790741    -0.06020
N996        N  0.02913738  0.90028502  0.26411307    -0.58840
N997        N  0.98737950  0.92532130  0.34735876    -0.05700
N998        N  0.97727973  0.90680824  0.36884365    -0.61340
C999        C  0.00304918  0.89644470  0.38220268     0.95440
C1000       C  0.00474666  0.88353878  0.25559427     0.95210
N1001       N  0.93393931  0.00452227  0.27708622    -0.06930
N1002       N  0.90901883  0.01427018  0.26322133    -0.59440
N1003       N  0.93636754  0.97505656  0.34682946    -0.05050
N1004       N  0.91895312  0.96435638  0.36888269    -0.60690
N1005       N  0.93587805  0.00507254  0.34657550    -0.06960
N1006       N  0.91811295  0.01549031  0.36850770    -0.59710
N1007       N  0.93423989  0.97437996  0.27767979    -0.04690
N1008       N  0.90941127  0.96359166  0.26447697    -0.60780
Mn1009     Mn  0.96103941  0.94906744  0.31207680     1.18440
C1010       C  0.89388071  0.98856859  0.25511349     0.97520
C1011       C  0.90792841  0.98983875  0.38226272     0.98180
N1012       N  0.06838456  0.97640974  0.27744240    -0.06980
N1013       N  0.09334459  0.96552175  0.26475552    -0.63280
N1014       N  0.06643013  0.00774919  0.34645879    -0.05780
N1015       N  0.08451313  0.01901251  0.36776403    -0.63960
N1016       N  0.06659100  0.97777226  0.34716514    -0.06480
N1017       N  0.08478622  0.96788265  0.36902147    -0.63550
N1018       N  0.06889676  0.00652700  0.27725395    -0.05380
N1019       N  0.09463193  0.01625183  0.26488991    -0.64240
Mn1020     Mn  0.04262671  0.95097387  0.31222969     1.10660
C1021       C  0.10965502  0.99044312  0.25696309     0.98740
C1022       C  0.09559598  0.99386021  0.38172259     0.98820
N1023       N  0.98549276  0.05645255  0.34597678    -0.06490
N1024       N  0.97499006  0.07414253  0.36797443    -0.61860
N1025       N  0.01532110  0.05769632  0.27607278    -0.05810
N1026       N  0.02574657  0.08276544  0.26308731    -0.58590
N1027       N  0.98523258  0.05829657  0.27678232    -0.07120
N1028       N  0.97520120  0.08413718  0.26470320    -0.61430
N1029       N  0.01541589  0.05680580  0.34568051    -0.06110
N1030       N  0.02600830  0.07460016  0.36752594    -0.58620
Mn1031     Mn  0.95975541  0.03139305  0.31120599     1.20190
Mn1032     Mn  0.04168061  0.03247028  0.31088772     1.10090
Cl1033     Cl  0.00124408  0.99098026  0.31099158    -0.86590
C1034       C  0.00056998  0.08507145  0.38125753     0.95750
C1035       C  0.00067057  0.09924153  0.25612458     0.95540
N1036       N  0.99179124  0.92731293  0.65343516    -0.06740
N1037       N  0.98107494  0.90929348  0.63177975    -0.58860
N1038       N  0.02203510  0.92662414  0.72275805    -0.06420
N1039       N  0.03212005  0.90171097  0.73645711    -0.60990
N1040       N  0.99198286  0.92695182  0.72296199    -0.06020
N1041       N  0.98152260  0.90243175  0.73692777    -0.58840
N1042       N  0.02170416  0.92731358  0.65327544    -0.05700
N1043       N  0.03207923  0.90929083  0.63146682    -0.61340
C1044       C  0.00645650  0.89840832  0.61818996     0.95440
C1045       C  0.00665346  0.88676763  0.74539499     0.95210
N1046       N  0.07335702  0.00930771  0.72168991    -0.06930
N1047       N  0.09844540  0.02040650  0.73405382    -0.59440
N1048       N  0.07155688  0.97802097  0.65251121    -0.05050
N1049       N  0.08918314  0.96710410  0.63071586    -0.60690
N1050       N  0.07135447  0.00803158  0.65205423    -0.06960
N1051       N  0.08888201  0.01823607  0.62984177    -0.59710
N1052       N  0.07435018  0.97915722  0.72161376    -0.04690
N1053       N  0.10039840  0.96972420  0.73357675    -0.60780
Mn1054     Mn  0.04769616  0.95249245  0.68796558     1.18440
C1055       C  0.11527175  0.99563675  0.74134663     0.97520
C1056       C  0.09963875  0.99244516  0.61670353     0.98180
N1057       N  0.93953118  0.97845456  0.72196549    -0.06980
N1058       N  0.91487724  0.96763417  0.73526839    -0.63280
N1059       N  0.94132253  0.00755302  0.65245016    -0.05780
N1060       N  0.92354540  0.01755730  0.63034211    -0.63960
N1061       N  0.94172068  0.97756134  0.65285080    -0.06480
N1062       N  0.92422576  0.96639764  0.63106961    -0.63550
N1063       N  0.93875879  0.00857513  0.72169893    -0.05380
N1064       N  0.91342559  0.01829536  0.73488355    -0.64240
Mn1065     Mn  0.96605035  0.95235583  0.68819849     1.10660
C1066       C  0.89874065  0.99251340  0.74364093     0.98740
C1067       C  0.91331109  0.99162190  0.61717524     0.98820
N1068       N  0.02083193  0.05866337  0.65177204    -0.06490
N1069       N  0.03119412  0.07673459  0.63003371    -0.61860
N1070       N  0.99090793  0.06161568  0.72101711    -0.05810
N1071       N  0.98068241  0.08664966  0.73441147    -0.58590
N1072       N  0.02097166  0.06143542  0.72125876    -0.07120
N1073       N  0.03127543  0.08616408  0.73517468    -0.61430
N1074       N  0.99090367  0.05855917  0.65188421    -0.06110
N1075       N  0.98017870  0.07650964  0.63022419    -0.58620
Mn1076     Mn  0.04691695  0.03461662  0.68706388     1.20190
Mn1077     Mn  0.96514723  0.03439262  0.68718442     1.10090
Cl1078     Cl  0.00646927  0.99350716  0.68825479    -0.86590
C1079       C  0.00555285  0.08746647  0.61672060     0.95750
C1080       C  0.00597971  0.10171678  0.74366211     0.95540
C1081       C  0.00164814  0.25332867  0.23824797    -0.00060
C1082       C  0.99702283  0.23166706  0.26019442    -0.00060
C1083       C  0.74014717  0.99624598  0.24109832    -0.00060
C1084       C  0.76301178  0.99369405  0.26247634    -0.00060
C1085       C  0.00291473  0.73007379  0.24132426    -0.00060
C1086       C  0.00342274  0.75167652  0.26408142    -0.00060
C1087       C  0.26373212  0.99126982  0.23676479    -0.00060
C1088       C  0.24206499  0.99317979  0.25908125    -0.00060
C1089       C  0.26396728  0.25438978  0.49975521    -0.00060
C1090       C  0.24272478  0.23162012  0.49741270    -0.00060
C1091       C  0.74082817  0.25003134  0.49913915    -0.00060
C1092       C  0.76302047  0.22810017  0.49924360    -0.00060
C1093       C  0.26772908  0.73439527  0.48357850    -0.00060
C1094       C  0.24433621  0.75496601  0.48581028    -0.00060
C1095       C  0.26888114  0.99523330  0.75526603    -0.00060
C1096       C  0.24683783  0.99035315  0.73376250    -0.00060
C1097       C  0.23705760  0.24930830  0.99275876    -0.00060
C1098       C  0.25999435  0.22834902  0.98881156    -0.00060
C1099       C  0.24700021  0.72673935  0.99119115    -0.00060
C1100       C  0.27002023  0.74786813  0.99106688    -0.00060
C1101       C  0.50611003  0.72769198  0.25663366    -0.00060
C1102       C  0.50567700  0.74952672  0.23440301    -0.00060
C1103       C  0.51156537  0.25130880  0.25909207    -0.00060
C1104       C  0.50767941  0.22930953  0.23707486    -0.00060
C1105       C  0.50607269  0.25558626  0.73735171    -0.00060
C1106       C  0.50065720  0.23382045  0.75943199    -0.00060
C1107       C  0.02078526  0.25514760  0.75750409    -0.00060
C1108       C  0.02061650  0.23163552  0.73665839    -0.00060
C1109       C  0.76199420  0.25735458  0.00743025    -0.00060
C1110       C  0.73990064  0.23493713  0.00850627    -0.00060
C1111       C  0.26657979  0.48557442  0.25731251    -0.00060
C1112       C  0.24484317  0.49025704  0.23541874    -0.00060
C1113       C  0.74321674  0.49452776  0.25973497    -0.00060
C1114       C  0.76420227  0.50043340  0.23725325    -0.00060
C1115       C  0.26429366  0.49279741  0.73733301    -0.00060
C1116       C  0.24209545  0.49218952  0.75908024    -0.00060
C1117       C  0.01266633  0.73252696  0.76334207    -0.00060
C1118       C  0.01197604  0.75572269  0.74242375    -0.00060
C1119       C  0.74589886  0.98940069  0.76544013    -0.00060
C1120       C  0.76696344  0.99103141  0.74232970    -0.00060
C1121       C  0.76853074  0.73147656  0.99310527    -0.00060
C1122       C  0.74724661  0.75417478  0.99909070    -0.00060
C1123       C  0.76350171  0.49013061  0.76114713    -0.00060
C1124       C  0.74267721  0.48484248  0.73835481    -0.00060
C1125       C  0.74604042  0.73022648  0.49448656    -0.00060
C1126       C  0.76723456  0.75321507  0.49301750    -0.00060
C1127       C  0.51136708  0.73196557  0.73466794    -0.00060
C1128       C  0.51105957  0.75520200  0.75561700    -0.00060
C1129       C  0.84919729  0.01913258  0.75313034    -0.12890
C1130       C  0.86535416  0.99151595  0.75039010     0.04120
C1131       C  0.84855563  0.96397264  0.74861425    -0.08180
C1132       C  0.81676897  0.96505290  0.74636854    -0.08920
C1133       C  0.80051174  0.99251453  0.74851724    -0.03470
C1134       C  0.81700761  0.02024785  0.75231664     0.03340
N1135       N  0.80218323  0.04970557  0.75355681     0.65850
H1136       H  0.86190955  0.04026022  0.75470979     0.14750
H1137       H  0.80458648  0.94394732  0.74255795     0.14460
N1138       N  0.86321383  0.93466715  0.74832949     0.73560
O1139       O  0.81735976  0.07385106  0.74944262    -0.39900
O1140       O  0.77434194  0.05214688  0.76007697    -0.39840
O1141       O  0.88108564  0.92743950  0.76974573    -0.40540
O1142       O  0.85445526  0.91429849  0.72989356    -0.40610
C1143       C  0.03500514  0.14808258  0.75912039    -0.12890
C1144       C  0.00682803  0.13503303  0.75128123     0.04120
C1145       C  0.98205146  0.15483226  0.74514089    -0.08180
C1146       C  0.98738136  0.18631981  0.74202946    -0.08920
C1147       C  0.01641278  0.19904164  0.74647066    -0.03470
C1148       C  0.04026184  0.17980554  0.75724722     0.03340
N1149       N  0.07034626  0.19102945  0.76433867     0.65850
H1150       H  0.05384850  0.13311134  0.76472442     0.14750
H1151       H  0.96869960  0.20111060  0.73541304     0.14460
N1152       N  0.95161827  0.14349111  0.74118753     0.73560
O1153       O  0.08824830  0.17519789  0.78045899    -0.39900
O1154       O  0.08020524  0.21546815  0.75290316    -0.39840
O1155       O  0.94019444  0.12617318  0.76114612    -0.40540
O1156       O  0.93446386  0.15488526  0.72102733    -0.40610
C1157       C  0.16471076  0.97454800  0.76055041    -0.12890
C1158       C  0.14901071  0.99677111  0.74357343     0.04120
C1159       C  0.16595955  0.01771360  0.72585486    -0.08180
C1160       C  0.19761878  0.01560624  0.72507720    -0.08920
C1161       C  0.21346154  0.99254273  0.74061952    -0.03470
C1162       C  0.19677760  0.97193803  0.75929706     0.03340
N1163       N  0.21129440  0.94771793  0.77609625     0.65850
H1164       H  0.15175121  0.95823253  0.77381483     0.14750
H1165       H  0.21002030  0.03144347  0.71071205     0.14460
N1166       N  0.15153806  0.03932692  0.70594790     0.73560
O1167       O  0.19979651  0.93835585  0.80076925    -0.39900
O1168       O  0.23410212  0.93389950  0.76538346    -0.39840
O1169       O  0.15973302  0.06695045  0.70657944    -0.40540
O1170       O  0.13610438  0.02982668  0.68354210    -0.40610
C1171       C  0.03448688  0.83875945  0.75765249    -0.12890
C1172       C  0.00654657  0.85342057  0.75216049     0.04120
C1173       C  0.98014848  0.83522316  0.74860965    -0.08180
C1174       C  0.98263402  0.80340174  0.74861142    -0.08920
C1175       C  0.01085967  0.78869521  0.75166207    -0.03470
C1176       C  0.03722745  0.80672210  0.75706142     0.03340
N1177       N  0.06712426  0.79347473  0.75964651     0.65850
H1178       H  0.05479748  0.85245511  0.76079023     0.14750
H1179       H  0.96239017  0.79008735  0.74400997     0.14460
N1180       N  0.95105027  0.84831353  0.74186171     0.73560
O1181       O  0.09033841  0.80846707  0.75162093    -0.39900
O1182       O  0.07086814  0.76800608  0.77240431    -0.39840
O1183       O  0.94438186  0.85457626  0.71453584    -0.40540
O1184       O  0.93003255  0.84664947  0.76139160    -0.40610
C1185       C  0.15876277  0.00917273  0.23457563    -0.12890
C1186       C  0.14333086  0.98934066  0.25435969     0.04120
C1187       C  0.16051852  0.97022850  0.27384555    -0.08180
C1188       C  0.19222208  0.97074453  0.27248357    -0.08920
C1189       C  0.20813442  0.99133022  0.25377396    -0.03470
C1190       C  0.19089818  0.01091190  0.23446351     0.03340
N1191       N  0.20496051  0.03434384  0.21665168     0.65850
H1192       H  0.14569800  0.02457067  0.22029224     0.14750
H1193       H  0.20461701  0.95605521  0.28799255     0.14460
N1194       N  0.14648456  0.95271840  0.29766735     0.73560
O1195       O  0.19611296  0.03898848  0.18961752    -0.39900
O1196       O  0.22124618  0.05419278  0.22963697    -0.39840
O1197       O  0.15530613  0.92576098  0.30280419    -0.40540
O1198       O  0.13053063  0.96616933  0.31748030    -0.40610
C1199       C  0.98501977  0.80053186  0.23930591    -0.12890
C1200       C  0.00684755  0.78533506  0.25745516     0.04120
C1201       C  0.02961966  0.80325243  0.27179813    -0.08180
C1202       C  0.02974803  0.83489484  0.26810032    -0.08920
C1203       C  0.00711461  0.85003384  0.25131028    -0.03470
C1204       C  0.98484312  0.83256992  0.23590404     0.03340
N1205       N  0.96183220  0.84683209  0.21722502     0.65850
H1206       H  0.96659279  0.78769048  0.22941497     0.14750
H1207       H  0.04677236  0.84789699  0.28046926     0.14460
N1208       N  0.05177572  0.79037397  0.29199477     0.73560
O1209       O  0.93707961  0.83319317  0.21171853    -0.39900
O1210       O  0.96734178  0.87159501  0.20355814    -0.39840
O1211       O  0.07576509  0.77891603  0.28111309    -0.40540
O1212       O  0.05139958  0.79794582  0.31979560    -0.40610
C1213       C  0.81083094  0.96481078  0.25491386    -0.12890
C1214       C  0.79609501  0.99327620  0.25387490     0.04120
C1215       C  0.81374278  0.01983902  0.24756714    -0.08180
C1216       C  0.84565965  0.01679984  0.24506183    -0.08920
C1217       C  0.86047371  0.98855511  0.24852523    -0.03470
C1218       C  0.84244813  0.96196558  0.25148517     0.03340
N1219       N  0.85572021  0.93198917  0.25179610     0.65850
H1220       H  0.79752134  0.94435510  0.25850376     0.14750
H1221       H  0.85940886  0.03708627  0.24203048     0.14460
N1222       N  0.80060136  0.05001920  0.24485617     0.73560
O1223       O  0.84593387  0.91198950  0.27006411    -0.39900
O1224       O  0.87372050  0.92408362  0.23078619    -0.39840
O1225       O  0.77239683  0.05438551  0.24746116    -0.40540
O1226       O  0.81729978  0.07276487  0.23904851    -0.40610
C1227       C  0.97956231  0.14864994  0.23603360    -0.12890
C1228       C  0.00155268  0.13308323  0.25345266     0.04120
C1229       C  0.02266877  0.15031449  0.27072818    -0.08180
C1230       C  0.02133080  0.18208587  0.27023225    -0.08920
C1231       C  0.99855743  0.19793309  0.25425479    -0.03470
C1232       C  0.97754345  0.18092435  0.23626647     0.03340
N1233       N  0.95366803  0.19537581  0.21896197     0.65850
H1234       H  0.96310210  0.13549383  0.22310025     0.14750
H1235       H  0.03757880  0.19460300  0.28403268     0.14460
N1236       N  0.04365257  0.13618804  0.29151434     0.73560
O1237       O  0.94389799  0.18307507  0.19478828    -0.39900
O1238       O  0.94050637  0.21899109  0.22881155    -0.39840
O1239       O  0.07122194  0.14438125  0.29167973    -0.40540
O1240       O  0.03352629  0.12096992  0.31374939    -0.40610
C1241       C  0.99196258  0.25052789  0.69025215    -0.12890
C1242       C  0.01840209  0.23714598  0.70278785     0.04120
C1243       C  0.04097400  0.22638770  0.68246099    -0.08180
C1244       C  0.03752314  0.23044626  0.65115042    -0.08920
C1245       C  0.01082493  0.24262275  0.63840103    -0.03470
C1246       C  0.98774507  0.25329194  0.65831925     0.03340
N1247       N  0.96012252  0.26674603  0.64675753     0.65850
H1248       H  0.97399413  0.25789588  0.70541651     0.14750
H1249       H  0.05522950  0.22127780  0.63658542     0.14460
N1250       N  0.06665809  0.20902735  0.69250329     0.73560
O1251       O  0.93593145  0.26568111  0.66227108    -0.39900
O1252       O  0.96047166  0.28244172  0.62260359    -0.39840
O1253       O  0.06380367  0.18044113  0.69472515    -0.40540
O1254       O  0.09299968  0.21988139  0.68856881    -0.40610
C1255       C  0.84490652  0.24409962  0.52444875    -0.12890
C1256       C  0.86072389  0.23776598  0.49731196     0.04120
C1257       C  0.84369686  0.23072629  0.47075523    -0.08180
C1258       C  0.81202568  0.22923170  0.47215374    -0.08920
C1259       C  0.79616331  0.23538483  0.49913537    -0.03470
C1260       C  0.81289662  0.24282255  0.52577045     0.03340
N1261       N  0.79826132  0.24676486  0.55472150     0.65850
H1262       H  0.85755582  0.24899696  0.54513272     0.14750
H1263       H  0.79970395  0.22231744  0.45189202     0.14460
N1264       N  0.85800027  0.22249229  0.44264151     0.73560
O1265       O  0.80897811  0.23369009  0.57806072    -0.39900
O1266       O  0.77865314  0.26749686  0.55815991    -0.39840
O1267       O  0.86520344  0.19497500  0.43795329    -0.40540
O1268       O  0.85727762  0.24088024  0.42049431    -0.40610
C1269       C  0.19341693  0.22343091  0.47122132    -0.12890
C1270       C  0.20901738  0.23733707  0.49548779     0.04120
C1271       C  0.19178108  0.25328120  0.51780331    -0.08180
C1272       C  0.15975298  0.25396077  0.51549918    -0.08920
C1273       C  0.14435600  0.23829907  0.49216810    -0.03470
C1274       C  0.16166696  0.22289292  0.46970924     0.03340
N1275       N  0.14773192  0.20366102  0.44716274     0.65850
H1276       H  0.20595420  0.21112137  0.45395935     0.14750
H1277       H  0.14666881  0.26532456  0.53311293     0.14460
N1278       N  0.20582151  0.26720445  0.54387369     0.73560
O1279       O  0.15532534  0.20632342  0.41952581    -0.39900
O1280       O  0.13378037  0.17988895  0.45553077    -0.39840
O1281       O  0.19635151  0.29270805  0.55340171    -0.40540
O1282       O  0.22383980  0.25197953  0.56032564    -0.40610
C1283       C  0.02212827  0.25051239  0.30829176    -0.12890
C1284       C  0.99568922  0.24039119  0.29325418     0.04120
C1285       C  0.96947259  0.23424597  0.31059653    -0.08180
C1286       C  0.97059967  0.23612287  0.34240386    -0.08920
C1287       C  0.99771546  0.24362016  0.35780058    -0.03470
C1288       C  0.02344220  0.25247735  0.34038357     0.03340
N1289       N  0.05104373  0.26285559  0.35476017     0.65850
H1290       H  0.04225726  0.25553596  0.29498975     0.14750
H1291       H  0.95044395  0.22970150  0.35510006     0.14460
N1292       N  0.94176924  0.22476644  0.29630004     0.73560
O1293       O  0.07650826  0.25816041  0.34224165    -0.39900
O1294       O  0.04982711  0.27993362  0.37794725    -0.39840
O1295       O  0.93166735  0.19821788  0.30107867    -0.40540
O1296       O  0.92446436  0.24459919  0.28462460    -0.40610
C1297       C  0.24624593  0.96263328  0.65176495    -0.12890
C1298       C  0.25796299  0.98794513  0.63599187     0.04120
C1299       C  0.27073764  0.01236941  0.65290638    -0.08180
C1300       C  0.26841329  0.01207435  0.68502293    -0.08920
C1301       C  0.25454789  0.98763956  0.70053157    -0.03470
C1302       C  0.24425135  0.96238930  0.68351640     0.03340
N1303       N  0.23031831  0.93676842  0.69802941     0.65850
H1304       H  0.23653986  0.94353623  0.63938554     0.14750
H1305       H  0.27642287  0.03149653  0.69792971     0.14460
N1306       N  0.28586766  0.03742766  0.63798814     0.73560
O1307       O  0.20192219  0.93292342  0.69555801    -0.39900
O1308       O  0.24681104  0.91472114  0.70646151    -0.39840
O1309       O  0.29989961  0.03318510  0.61321759    -0.40540
O1310       O  0.28855981  0.06286281  0.65131123    -0.40610
C1311       C  0.26031443  0.14929280  0.47355792    -0.12890
C1312       C  0.25543652  0.13392387  0.50124586     0.04120
C1313       C  0.25119646  0.15147166  0.52805386    -0.08180
C1314       C  0.24798032  0.18319624  0.52574831    -0.08920
C1315       C  0.25173457  0.19859663  0.49799133    -0.03470
C1316       C  0.25878261  0.18133485  0.47147350     0.03340
N1317       N  0.26191554  0.19526135  0.44192977     0.65850
H1318       H  0.26397585  0.13611741  0.45295865     0.14750
H1319       H  0.24215960  0.19605245  0.54600697     0.14460
N1320       N  0.24915468  0.13760471  0.55765346     0.73560
O1321       O  0.25337760  0.18113986  0.41828261    -0.39900
O1322       O  0.27643898  0.21984690  0.43885525    -0.39840
O1323       O  0.27015901  0.12011340  0.56674875    -0.40540
O1324       O  0.22945852  0.14677305  0.57652104    -0.40610
C1325       C  0.23527173  0.83896035  0.46673269    -0.12890
C1326       C  0.25291206  0.85341240  0.48922144     0.04120
C1327       C  0.26995904  0.83527936  0.50986319    -0.08180
C1328       C  0.26783883  0.80310907  0.50783923    -0.08920
C1329       C  0.24977966  0.78881451  0.48535920    -0.03470
C1330       C  0.23327251  0.80730212  0.46482072     0.03340
N1331       N  0.21350877  0.79432379  0.44228126     0.65850
H1332       H  0.22157815  0.85236745  0.45108686     0.14750
H1333       H  0.27956096  0.78918944  0.52449810     0.14460
N1334       N  0.28937703  0.84889378  0.53267711     0.73560
O1335       O  0.18557451  0.80118901  0.44229807    -0.39900
O1336       O  0.22484471  0.78201174  0.41890079    -0.39840
O1337       O  0.30122153  0.87478882  0.52827827    -0.40540
O1338       O  0.29742434  0.83374152  0.55584048    -0.40610
C1339       C  0.26422251  0.97361415  0.34132059    -0.12890
C1340       C  0.25290331  0.99949398  0.35649578     0.04120
C1341       C  0.24290805  0.02468312  0.33885341    -0.08180
C1342       C  0.24209710  0.02245153  0.30709853    -0.08920
C1343       C  0.25094278  0.99572185  0.29199425    -0.03470
C1344       C  0.26316370  0.97116373  0.30928695     0.03340
N1345       N  0.27254264  0.94293290  0.29536086     0.65850
H1346       H  0.27194060  0.95423075  0.35461238     0.14750
H1347       H  0.23243945  0.04118345  0.29412005     0.14460
N1348       N  0.23040747  0.05155676  0.35255720     0.73560
O1349       O  0.29421932  0.92778890  0.30679366    -0.39900
O1350       O  0.25721276  0.93122195  0.27398648    -0.39840
O1351       O  0.24375778  0.07681773  0.34897551    -0.40540
O1352       O  0.20313844  0.05131588  0.36166488    -0.40610
C1353       C  0.74845820  0.14489610  0.47591666    -0.12890
C1354       C  0.75314697  0.13003363  0.50391142     0.04120
C1355       C  0.75728733  0.14802948  0.53038308    -0.08180
C1356       C  0.75917304  0.17978887  0.52785338    -0.08920
C1357       C  0.75564371  0.19473269  0.49978156    -0.03470
C1358       C  0.75002501  0.17691380  0.47318857     0.03340
N1359       N  0.74819972  0.19008351  0.44309334     0.65850
H1360       H  0.74518106  0.13126601  0.45554450     0.14750
H1361       H  0.76434479  0.19293348  0.54813291     0.14460
N1362       N  0.76144691  0.13451987  0.55983316     0.73560
O1363       O  0.75435649  0.17414932  0.41987748    -0.39900
O1364       O  0.73854459  0.21684864  0.43915129    -0.39840
O1365       O  0.78558714  0.13948794  0.57472353    -0.40540
O1366       O  0.73965636  0.12059908  0.57241264    -0.40610
C1367       C  0.76069199  0.01861701  0.31287761    -0.12890
C1368       C  0.75706910  0.99166942  0.29601885     0.04120
C1369       C  0.75224413  0.96385336  0.31196839    -0.08180
C1370       C  0.75138970  0.96432287  0.34424718    -0.08920
C1371       C  0.75421170  0.99171274  0.36089883    -0.03470
C1372       C  0.75707799  0.01939438  0.34452450     0.03340
N1373       N  0.75599716  0.04860091  0.35941226     0.65850
H1374       H  0.76523611  0.03981014  0.30118808     0.14750
H1375       H  0.74923179  0.94298598  0.35653573     0.14460
N1376       N  0.75011314  0.93492464  0.29636600     0.73560
O1377       O  0.77371400  0.06973615  0.35114656    -0.39900
O1378       O  0.73382426  0.05497946  0.37659376    -0.39840
O1379       O  0.75737974  0.91054447  0.30993817    -0.40540
O1380       O  0.73957184  0.93320559  0.26962922    -0.40610
C1381       C  0.75453693  0.96417933  0.66035074    -0.12890
C1382       C  0.75617238  0.99197550  0.64436122     0.04120
C1383       C  0.75632639  0.01952704  0.66135752    -0.08180
C1384       C  0.75851370  0.01837938  0.69327416    -0.08920
C1385       C  0.75839855  0.99059755  0.70920850    -0.03470
C1386       C  0.75526613  0.96315862  0.69244610     0.03340
N1387       N  0.75406842  0.93405630  0.70739358     0.65850
H1388       H  0.75374925  0.94288741  0.64778185     0.14750
H1389       H  0.76049339  0.03957586  0.70575019     0.14460
N1390       N  0.75505137  0.04885343  0.64676556     0.73560
O1391       O  0.76763382  0.91134482  0.69597879    -0.39900
O1392       O  0.73536693  0.92974990  0.72874789    -0.39840
O1393       O  0.73408532  0.05455667  0.62784785    -0.40540
O1394       O  0.77163382  0.07044402  0.65622869    -0.40610
C1395       C  0.74078418  0.83604049  0.48018914    -0.12890
C1396       C  0.75293368  0.85003803  0.50631070     0.04120
C1397       C  0.76484937  0.83125376  0.52975256    -0.08180
C1398       C  0.76850030  0.79996582  0.52447840    -0.08920
C1399       C  0.75847766  0.78606397  0.49742684    -0.03470
C1400       C  0.74299254  0.80430125  0.47544315     0.03340
N1401       N  0.73159433  0.79211071  0.44719949     0.65850
H1402       H  0.73140861  0.85023814  0.46223092     0.14750
H1403       H  0.77979641  0.78628893  0.54171521     0.14460
N1404       N  0.77456986  0.84351694  0.55853304     0.73560
O1405       O  0.70809038  0.80354432  0.43508611    -0.39900
O1406       O  0.74682341  0.77285237  0.43227083    -0.39840
O1407       O  0.75581119  0.85795867  0.57490316    -0.40540
O1408       O  0.79960259  0.83514651  0.57004765    -0.40610
C1409       C  0.19856581  0.75962499  0.51831987    -0.12890
C1410       C  0.21192407  0.74584502  0.49265576     0.04120
C1411       C  0.19284901  0.72865772  0.47286413    -0.08180
C1412       C  0.16118426  0.72854813  0.47744848    -0.08920
C1413       C  0.14780298  0.74500692  0.50133545    -0.03470
C1414       C  0.16697828  0.76005263  0.52255935     0.03340
N1415       N  0.15496990  0.77892544  0.54641828     0.65850
H1416       H  0.21269704  0.77259802  0.53395795     0.14750
H1417       H  0.14677847  0.71661818  0.46124593     0.14460
N1418       N  0.20440407  0.71215612  0.44729732     0.73560
O1419       O  0.16447313  0.77545293  0.57339507    -0.39900
O1420       O  0.14078587  0.80307579  0.53960029    -0.39840
O1421       O  0.20449143  0.68337009  0.44870826    -0.40540
O1422       O  0.20307349  0.72446912  0.42133264    -0.40610
C1423       C  0.02762597  0.73185544  0.31209022    -0.12890
C1424       C  0.00134404  0.74254045  0.29707899     0.04120
C1425       C  0.97444884  0.74668287  0.31444860    -0.08180
C1426       C  0.97534915  0.74256984  0.34615778    -0.08920
C1427       C  0.00270234  0.73615740  0.36153928    -0.03470
C1428       C  0.02878353  0.72917035  0.34405189     0.03340
N1429       N  0.05693653  0.72081573  0.35839312     0.65850
H1430       H  0.04814631  0.72767810  0.29912302     0.14750
H1431       H  0.95488872  0.74743412  0.35906183     0.14460
N1432       N  0.94615058  0.75601331  0.30092691     0.73560
O1433       O  0.05763403  0.69928323  0.37752048    -0.39900
O1434       O  0.08145605  0.73371690  0.35067795    -0.39840
O1435       O  0.92166961  0.74353155  0.30944572    -0.40540
O1436       O  0.94465256  0.78055664  0.28600882    -0.40610
C1437       C  0.98835110  0.73457677  0.66038919    -0.12890
C1438       C  0.01152430  0.74923463  0.64386579     0.04120
C1439       C  0.03502785  0.76428513  0.66013097    -0.08180
C1440       C  0.03511347  0.76379947  0.69192064    -0.08920
C1441       C  0.01147251  0.75039877  0.70865119    -0.03470
C1442       C  0.98757970  0.73543325  0.69260196     0.03340
N1443       N  0.96187551  0.72222703  0.70806145     0.65850
H1444       H  0.96991301  0.72366889  0.64805376     0.14750
H1445       H  0.05325471  0.77565894  0.70370338     0.14460
N1446       N  0.05719211  0.78306772  0.64513858     0.73560
O1447       O  0.94883909  0.69897604  0.69708230    -0.39900
O1448       O  0.95018872  0.73530198  0.73087471    -0.39840
O1449       O  0.04853573  0.80666528  0.63101625    -0.40540
O1450       O  0.08503094  0.78024641  0.65184018    -0.40610
C1451       C  0.85151332  0.75540338  0.47208339    -0.12890
C1452       C  0.86549679  0.74152373  0.49734359     0.04120
C1453       C  0.84678875  0.72879915  0.52037467    -0.08180
C1454       C  0.81474453  0.73179727  0.51791055    -0.08920
C1455       C  0.80096448  0.74690259  0.49302680    -0.03470
C1456       C  0.82005501  0.75906143  0.47015051     0.03340
N1457       N  0.80846515  0.77731430  0.44573158     0.65850
H1458       H  0.86521215  0.76595190  0.45445102     0.14750
H1459       H  0.80051584  0.72332072  0.53612870     0.14460
N1460       N  0.85969485  0.71285794  0.54607787     0.73560
O1461       O  0.80572706  0.80570211  0.44989665    -0.39900
O1462       O  0.81096791  0.76753686  0.41875537    -0.39840
O1463       O  0.88455087  0.69858900  0.54344069    -0.40540
O1464       O  0.84469867  0.71007527  0.57048081    -0.40610
C1465       C  0.75609092  0.15154851  0.03008137    -0.12890
C1466       C  0.75226028  0.13748303  0.00157134     0.04120
C1467       C  0.75021191  0.15623198  0.97537923    -0.08180
C1468       C  0.74926446  0.18806368  0.97857830    -0.08920
C1469       C  0.74946483  0.20199986  0.00740313    -0.03470
C1470       C  0.75383038  0.18340286  0.03383389     0.03340
N1471       N  0.75298649  0.19532921  0.06464838     0.65850
H1472       H  0.75810044  0.13726519  0.05013869     0.14750
H1473       H  0.74596705  0.20198795  0.95838673     0.14460
N1474       N  0.74649874  0.14354450  0.94554883     0.73560
O1475       O  0.76049551  0.17858626  0.08689390    -0.39900
O1476       O  0.74284712  0.22163583  0.07034031    -0.39840
O1477       O  0.72001499  0.13818750  0.93563564    -0.40540
O1478       O  0.76847385  0.14437624  0.92705130    -0.40610
C1479       C  0.76607651  0.83720454  0.02201830    -0.12890
C1480       C  0.75070854  0.85296918  0.99871268     0.04120
C1481       C  0.73674285  0.83593957  0.97512380    -0.08180
C1482       C  0.73947630  0.80420004  0.97473323    -0.08920
C1483       C  0.75308911  0.78796713  0.99877642    -0.03470
C1484       C  0.76733899  0.80483620  0.02284653     0.03340
N1485       N  0.78363596  0.79029968  0.04764445     0.65850
H1486       H  0.77657384  0.85039873  0.04010480     0.14750
H1487       H  0.72858069  0.79190404  0.95630516     0.14460
N1488       N  0.71649636  0.84989097  0.95346013     0.73560
O1489       O  0.79862134  0.80624415  0.06642368    -0.39900
O1490       O  0.78495186  0.76166267  0.05010578    -0.39840
O1491       O  0.71787753  0.84241204  0.92567718    -0.40540
O1492       O  0.69325144  0.86399219  0.96291419    -0.40610
C1493       C  0.77134472  0.97546565  0.84822074    -0.12890
C1494       C  0.75849418  0.00114021  0.86244598     0.04120
C1495       C  0.74725820  0.02508064  0.84383239    -0.08180
C1496       C  0.74440617  0.02047927  0.81238570    -0.08920
C1497       C  0.75489609  0.99377961  0.79820802    -0.03470
C1498       C  0.77023084  0.97158651  0.81629114     0.03340
N1499       N  0.78246206  0.94393497  0.80358724     0.65850
H1500       H  0.78039590  0.95720602  0.86224236     0.14750
H1501       H  0.73316647  0.03784641  0.79882384     0.14460
N1502       N  0.73734468  0.05366661  0.85640228     0.73560
O1503       O  0.80589894  0.93193230  0.81526443    -0.39900
O1504       O  0.76811150  0.92942001  0.78332208    -0.39840
O1505       O  0.75577492  0.06966132  0.87173039    -0.40540
O1506       O  0.71258229  0.06544732  0.84761324    -0.40610
C1507       C  0.73415045  0.02218585  0.15820355    -0.12890
C1508       C  0.75098086  0.99985084  0.14264100     0.04120
C1509       C  0.76698070  0.97763408  0.15981803    -0.08180
C1510       C  0.76464012  0.97792414  0.19199756    -0.08920
C1511       C  0.74710928  0.00000581  0.20753341    -0.03470
C1512       C  0.73145739  0.02212875  0.18994358     0.03340
N1513       N  0.71035698  0.04304707  0.20350750     0.65850
H1514       H  0.72099955  0.03885541  0.14550656     0.14750
H1515       H  0.77526979  0.95976475  0.20484841     0.14460
N1516       N  0.78522611  0.95457142  0.14515123     0.73560
O1517       O  0.68283461  0.04264105  0.19509077    -0.39900
O1518       O  0.72025058  0.06612803  0.21754731    -0.39840
O1519       O  0.79869648  0.96024763  0.12036453    -0.40540
O1520       O  0.79048907  0.92951957  0.15841816    -0.40610
C1521       C  0.24876040  0.82951371  0.01602612    -0.12890
C1522       C  0.26178947  0.84641379  0.99211756     0.04120
C1523       C  0.27604811  0.83049719  0.96792965    -0.08180
C1524       C  0.27686840  0.79872546  0.96815009    -0.08920
C1525       C  0.26471894  0.78161516  0.99222033    -0.03470
C1526       C  0.25031909  0.79727317  0.01671377     0.03340
N1527       N  0.23823338  0.78140675  0.04279018     0.65850
H1528       H  0.23842780  0.84160459  0.03493809     0.14750
H1529       H  0.28837780  0.78738490  0.94956167     0.14460
N1530       N  0.29244174  0.84597050  0.94427847     0.73560
O1531       O  0.21593122  0.79243831  0.05724165    -0.39900
O1532       O  0.25135990  0.75801233  0.05327115    -0.39840
O1533       O  0.31686125  0.85977665  0.95076097    -0.40540
O1534       O  0.28652813  0.84009103  0.91669782    -0.40610
C1535       C  0.25186401  0.18055564  0.01912078    -0.12890
C1536       C  0.25353550  0.19474963  0.99045059     0.04120
C1537       C  0.25071105  0.17647845  0.96405811    -0.08180
C1538       C  0.24838226  0.14468371  0.96679126    -0.08920
C1539       C  0.24980291  0.13014380  0.99535175    -0.03470
C1540       C  0.25000322  0.14860463  0.02197439     0.03340
N1541       N  0.24927540  0.13550798  0.05198697     0.65850
H1542       H  0.25273306  0.19436590  0.03956595     0.14750
H1543       H  0.24779821  0.13118840  0.94606912     0.14460
N1544       N  0.25215629  0.18935025  0.93413901     0.73560
O1545       O  0.26575505  0.14646163  0.07295006    -0.39900
O1546       O  0.22914557  0.11606318  0.05868682    -0.39840
O1547       O  0.27798042  0.19354371  0.92232453    -0.40540
O1548       O  0.22935535  0.18675280  0.91674186    -0.40610
C1549       C  0.24304835  0.01132468  0.83781388    -0.12890
C1550       C  0.25912786  0.98827827  0.85328545     0.04120
C1551       C  0.27639700  0.96715615  0.83611616    -0.08180
C1552       C  0.27758164  0.96981551  0.80449967    -0.08920
C1553       C  0.26274417  0.99348778  0.78884271    -0.03470
C1554       C  0.24458837  0.01440695  0.80574648     0.03340
N1555       N  0.22833921  0.03915894  0.79145574     0.65850
H1556       H  0.23016904  0.02779826  0.85098849     0.14750
H1557       H  0.29134653  0.95352814  0.79203009     0.14460
N1558       N  0.29533484  0.94456651  0.85031722     0.73560
O1559       O  0.20448809  0.04968931  0.80362365    -0.39900
O1560       O  0.23868056  0.05211567  0.76797846    -0.39840
O1561       O  0.29317300  0.91700251  0.84215283    -0.40540
O1562       O  0.31837661  0.95292293  0.86544094    -0.40610
C1563       C  0.24793250  0.96585152  0.15448411    -0.12890
C1564       C  0.25807393  0.99169033  0.13842979     0.04120
C1565       C  0.26779970  0.01751482  0.15529597    -0.08180
C1566       C  0.26645588  0.01711791  0.18708771    -0.08920
C1567       C  0.25671812  0.99136764  0.20333688    -0.03470
C1568       C  0.24761262  0.96511758  0.18667021     0.03340
N1569       N  0.24056513  0.93684975  0.20158483     0.65850
H1570       H  0.24126896  0.94560616  0.14191079     0.14750
H1571       H  0.27539374  0.03661966  0.19926025     0.14460
N1572       N  0.28267167  0.04293437  0.14108949     0.73560
O1573       O  0.25147518  0.91218504  0.19142494    -0.39900
O1574       O  0.21925762  0.93566478  0.22076255    -0.39840
O1575       O  0.27369912  0.06971711  0.14680979    -0.40540
O1576       O  0.30861188  0.03916250  0.12924860    -0.40610
C1577       C  0.53171681  0.14574729  0.23848972    -0.12890
C1578       C  0.50526753  0.13100899  0.24890434     0.04120
C1579       C  0.48050929  0.14912706  0.25889097    -0.08180
C1580       C  0.48209467  0.18117688  0.25567446    -0.08920
C1581       C  0.50830844  0.19578129  0.24430276    -0.03470
C1582       C  0.53343420  0.17752312  0.23593884     0.03340
N1583       N  0.56054875  0.19063645  0.22350884     0.65850
H1584       H  0.55104477  0.13245878  0.23076922     0.14750
H1585       H  0.46233250  0.19461174  0.26136861     0.14460
N1586       N  0.45386480  0.13554173  0.27234300     0.73560
O1587       O  0.57648108  0.20825475  0.23970778    -0.39900
O1588       O  0.57156313  0.18018464  0.19904176    -0.39840
O1589       O  0.45638409  0.11225107  0.28913874    -0.40540
O1590       O  0.42848317  0.14905862  0.27099451    -0.40610
C1591       C  0.48541224  0.83174334  0.25782677    -0.12890
C1592       C  0.50733622  0.84796137  0.24117413     0.04120
C1593       C  0.52953496  0.83149264  0.22451684    -0.08180
C1594       C  0.52966791  0.79968214  0.22553899    -0.08920
C1595       C  0.50696645  0.78318230  0.24078072    -0.03470
C1596       C  0.48449508  0.79961222  0.25720230     0.03340
N1597       N  0.45892412  0.78460527  0.27062333     0.65850
H1598       H  0.46770643  0.84414486  0.26978383     0.14750
H1599       H  0.54624419  0.78777195  0.21177997     0.14460
N1600       N  0.54962004  0.84620476  0.20329323     0.73560
O1601       O  0.45216474  0.79009593  0.29806939    -0.39900
O1602       O  0.43917830  0.77265032  0.25343910    -0.39840
O1603       O  0.57744350  0.83893306  0.20270746    -0.40540
O1604       O  0.53851525  0.86072999  0.18100789    -0.40610
C1605       C  0.34616762  0.01128531  0.25897556    -0.12890
C1606       C  0.36129623  0.98458383  0.24979314     0.04120
C1607       C  0.34356195  0.95899497  0.24099967    -0.08180
C1608       C  0.31205257  0.96229570  0.23724651    -0.08920
C1609       C  0.29703641  0.98962299  0.24437172    -0.03470
C1610       C  0.31426414  0.01412240  0.25693209     0.03340
N1611       N  0.30051321  0.04224478  0.26687779     0.65850
H1612       H  0.35947417  0.03080161  0.26630503     0.14750
H1613       H  0.29898169  0.94306770  0.22884251     0.14460
N1614       N  0.35700402  0.92968811  0.23516996     0.73560
O1615       O  0.31236506  0.05725023  0.28845751    -0.39900
O1616       O  0.27839429  0.05375571  0.25260911    -0.39840
O1617       O  0.37300036  0.91705992  0.25554550    -0.40540
O1618       O  0.34844448  0.91413555  0.21245203    -0.40610
C1619       C  0.69252140  0.96874706  0.22923609    -0.12890
C1620       C  0.70691034  0.99053768  0.24794392     0.04120
C1621       C  0.68822943  0.00853983  0.26746740    -0.08180
C1622       C  0.65633035  0.00595093  0.26569172    -0.08920
C1623       C  0.64240753  0.98636532  0.24469424    -0.03470
C1624       C  0.66085645  0.96724227  0.22642579     0.03340
N1625       N  0.64828225  0.94888699  0.20233328     0.65850
H1626       H  0.70617528  0.95459363  0.21425545     0.14750
H1627       H  0.64224492  0.02057321  0.27979453     0.14460
N1628       N  0.70037711  0.03054998  0.28821725     0.73560
O1629       O  0.63257761  0.96139185  0.18165666    -0.39900
O1630       O  0.65816269  0.92214839  0.19805989    -0.39840
O1631       O  0.71331885  0.05410466  0.27802529    -0.40540
O1632       O  0.69150452  0.03034358  0.31561569    -0.40610
C1633       C  0.65618957  0.25964549  0.99024322    -0.12890
C1634       C  0.64008310  0.23866165  0.00795964     0.04120
C1635       C  0.65654721  0.21791082  0.02617115    -0.08180
C1636       C  0.68823354  0.21971608  0.02747017    -0.08920
C1637       C  0.70535018  0.23985411  0.00909104    -0.02270
C1638       C  0.68836770  0.25971895  0.98953732     0.03340
N1639       N  0.70233173  0.27684059  0.96571754     0.65850
H1640       H  0.64362881  0.27452284  0.97497899     0.14750
H1641       H  0.69927430  0.20284036  0.04137874     0.14460
N1642       N  0.64196546  0.19223674  0.04036450     0.73560
O1643       O  0.71631070  0.26275019  0.94488688    -0.39900
O1644       O  0.69375133  0.30397797  0.96096395    -0.39840
O1645       O  0.62659683  0.17404845  0.02415383    -0.40540
O1646       O  0.64985283  0.18402293  0.06683249    -0.40610
C1647       C  0.34300475  0.24674356  0.96831622    -0.12890
C1648       C  0.35739544  0.24130156  0.99652444     0.04120
C1649       C  0.33888673  0.23699560  0.02257264    -0.08180
C1650       C  0.30739157  0.23345567  0.01896966    -0.08920
C1651       C  0.29303107  0.23693424  0.99053157    -0.03470
C1652       C  0.31096518  0.24562290  0.96501168     0.03340
N1653       N  0.29764424  0.25269454  0.93572593     0.65850
H1654       H  0.35699712  0.25121266  0.94849448     0.14750
H1655       H  0.29373742  0.22854965  0.03890988     0.14460
N1656       N  0.35150745  0.23584901  0.05279396     0.73560
O1657       O  0.31401843  0.25343975  0.91207039    -0.39900
O1658       O  0.27002225  0.26023631  0.93342787    -0.39840
O1659       O  0.36851787  0.25722425  0.06196941    -0.40540
O1660       O  0.34151576  0.21676149  0.07190151    -0.40610
C1661       C  0.47545290  0.24788155  0.84230153    -0.12890
C1662       C  0.50295822  0.24325668  0.85809773     0.04120
C1663       C  0.52986573  0.23926829  0.84085088    -0.08180
C1664       C  0.52819485  0.23726883  0.80900290    -0.08920
C1665       C  0.50072605  0.24136159  0.79301356    -0.03470
C1666       C  0.47395749  0.24716730  0.81018034     0.03340
N1667       N  0.44478141  0.25067058  0.79592428     0.65850
H1668       H  0.45458267  0.25103079  0.85508454     0.14750
H1669       H  0.54872538  0.23150947  0.79673814     0.14460
N1670       N  0.55897462  0.23561557  0.85519281     0.73560
O1671       O  0.42177254  0.23755804  0.80715904    -0.39900
O1672       O  0.44079199  0.27132217  0.77632230    -0.39840
O1673       O  0.57490912  0.21226217  0.84966595    -0.40540
O1674       O  0.57051093  0.25754191  0.86992047    -0.40610
C1675       C  0.47192302  0.23710928  0.15787242    -0.12890
C1676       C  0.49782580  0.24267458  0.13984375     0.04120
C1677       C  0.52590375  0.24841965  0.15458885    -0.08180
C1678       C  0.52832395  0.24362241  0.18605300    -0.08920
C1679       C  0.50286456  0.23737737  0.20419342    -0.03470
C1680       C  0.47396394  0.23508658  0.18993733     0.03340
N1681       N  0.44682076  0.22946552  0.20737191     0.65850
H1682       H  0.45014862  0.23316281  0.14690278     0.14750
H1683       H  0.55062116  0.24386380  0.19614318     0.14460
N1684       N  0.55226280  0.25850210  0.13791449     0.73560
O1685       O  0.42524605  0.21410519  0.19603555    -0.39900
O1686       O  0.44280712  0.24271774  0.23261700    -0.39840
O1687       O  0.54946249  0.27846783  0.11731262    -0.40540
O1688       O  0.57866756  0.25086506  0.14648395    -0.40610
C1689       C  0.66185843  0.96727866  0.77085084    -0.12890
C1690       C  0.64744200  0.98938977  0.75277499     0.04120
C1691       C  0.66560654  0.01082570  0.73685442    -0.08180
C1692       C  0.69762646  0.01014461  0.74089944    -0.08920
C1693       C  0.71200895  0.98810812  0.75950353    -0.03470
C1694       C  0.69334495  0.96673568  0.77483777     0.03340
N1695       N  0.70544669  0.94514878  0.79608837     0.65850
H1696       H  0.64840144  0.95113855  0.78385730     0.14750
H1697       H  0.71129495  0.02759764  0.73024402     0.14460
N1698       N  0.65222689  0.03293677  0.71643342     0.73560
O1699       O  0.70512311  0.95185771  0.82410121    -0.39900
O1700       O  0.70613220  0.91732856  0.78860013    -0.39840
O1701       O  0.62665479  0.02796425  0.70416836    -0.40540
O1702       O  0.66743956  0.05579237  0.70772648    -0.40610
C1703       C  0.31709001  0.96981749  0.73754238    -0.12890
C1704       C  0.30189968  0.99651844  0.74675594     0.04120
C1705       C  0.31906709  0.02310008  0.75224570    -0.08180
C1706       C  0.35081830  0.02215396  0.75051448    -0.08920
C1707       C  0.36640145  0.99483865  0.74416121    -0.03470
C1708       C  0.34917802  0.96859645  0.73613495     0.03340
N1709       N  0.36372040  0.94052136  0.72734600     0.65850
H1710       H  0.30389455  0.94942511  0.73290241     0.14750
H1711       H  0.36332430  0.04268760  0.75629443     0.14460
N1712       N  0.30470102  0.05103559  0.76101839     0.73560
O1713       O  0.35159993  0.91519012  0.73380423    -0.39900
O1714       O  0.38670704  0.94095058  0.71007778    -0.39840
O1715       O  0.30940582  0.06173880  0.78735072    -0.40540
O1716       O  0.29349740  0.06810485  0.74070713    -0.40610
C1717       C  0.47753286  0.15039270  0.75146861    -0.12890
C1718       C  0.50599364  0.13575243  0.75293787     0.04120
C1719       C  0.53264226  0.15404584  0.75318272    -0.08180
C1720       C  0.53010834  0.18596075  0.75193975    -0.08920
C1721       C  0.50162071  0.20043395  0.75278413    -0.03470
C1722       C  0.47483914  0.18233549  0.75227735     0.03340
N1723       N  0.44481112  0.19569485  0.75238738     0.65850
H1724       H  0.45694098  0.13679978  0.75088578     0.14750
H1725       H  0.55065968  0.19963001  0.75276982     0.14460
N1726       N  0.56227050  0.14112430  0.75766937     0.73560
O1727       O  0.42258566  0.18097714  0.76321519    -0.39900
O1728       O  0.43954913  0.22034201  0.73843623    -0.39840
O1729       O  0.58275494  0.14585404  0.73807070    -0.40540
O1730       O  0.56995538  0.13250964  0.78407822    -0.40610
C1731       C  0.53362210  0.83825152  0.74061399    -0.12890
C1732       C  0.50540186  0.85292081  0.74446045     0.04120
C1733       C  0.47882099  0.83469928  0.74631731    -0.08180
C1734       C  0.48159971  0.80286367  0.74814206    -0.08920
C1735       C  0.50997217  0.78821131  0.74643374    -0.03470
C1736       C  0.53636114  0.80621564  0.74138675     0.03340
N1737       N  0.56619837  0.79286228  0.73891800     0.65850
H1738       H  0.55404687  0.85193835  0.73841483     0.14750
H1739       H  0.46125144  0.78939977  0.75153317     0.14460
N1740       N  0.44893693  0.84795619  0.74758015     0.73560
O1741       O  0.58943139  0.80763034  0.74738861    -0.39900
O1742       O  0.56988991  0.76780442  0.72532046    -0.39840
O1743       O  0.44056982  0.86650345  0.72717014    -0.40540
O1744       O  0.42942215  0.83766424  0.76604178    -0.40610
C1745       C  0.35259999  0.73257038  0.96656356    -0.12890
C1746       C  0.36753813  0.73533109  0.99477535     0.04120
C1747       C  0.34970114  0.73574044  0.02164529    -0.08180
C1748       C  0.31792919  0.73816775  0.01928530    -0.08920
C1749       C  0.30298958  0.73841441  0.99095323    -0.03470
C1750       C  0.32056900  0.73380527  0.96400170     0.03340
N1751       N  0.30711800  0.73182079  0.93393123     0.65850
H1752       H  0.36622770  0.73122512  0.94604501     0.14750
H1753       H  0.30474165  0.74058513  0.03995873     0.14460
N1754       N  0.36333376  0.73461491  0.05144708     0.73560
O1755       O  0.32374615  0.72867144  0.91064913    -0.39900
O1756       O  0.27870608  0.73240096  0.93020264    -0.39840
O1757       O  0.35261351  0.75056391  0.07290899    -0.40540
O1758       O  0.38298152  0.71442550  0.05747885    -0.40610
C1759       C  0.69762690  0.74187806  0.97345680    -0.12890
C1760       C  0.71368329  0.74651763  0.00082124     0.04120
C1761       C  0.69685767  0.74867461  0.02823184    -0.08180
C1762       C  0.66480338  0.74746475  0.02732025    -0.08920
C1763       C  0.64878382  0.74403437  0.99967553    -0.03470
C1764       C  0.66573435  0.73972658  0.97256081     0.03340
N1765       N  0.65107708  0.73402804  0.94378220     0.65850
H1766       H  0.70989756  0.74142863  0.95217709     0.14750
H1767       H  0.65231286  0.75045331  0.04840255     0.14460
N1768       N  0.71172503  0.75299650  0.05705210     0.73560
O1769       O  0.66118762  0.74617398  0.91971505    -0.39900
O1770       O  0.63088649  0.71360074  0.94171008    -0.39840
O1771       O  0.73177506  0.73424933  0.06562354    -0.40540
O1772       O  0.70067930  0.77133270  0.07632633    -0.40610
C1773       C  0.52641291  0.72889681  0.15212192    -0.12890
C1774       C  0.50109684  0.74103451  0.13666165     0.04120
C1775       C  0.47586022  0.75131217  0.15401704    -0.08180
C1776       C  0.47737137  0.75104068  0.18583096    -0.08920
C1777       C  0.50365404  0.74156526  0.20125012    -0.03470
C1778       C  0.52810031  0.72924279  0.18418195     0.03340
N1779       N  0.55552460  0.71895508  0.19859189     0.65850
H1780       H  0.54587060  0.72090454  0.13919189     0.14750
H1781       H  0.45854929  0.76058544  0.19860384     0.14460
N1782       N  0.44986471  0.76538918  0.14012380     0.73560
O1783       O  0.56610727  0.69298233  0.19197194    -0.39900
O1784       O  0.57239561  0.73789124  0.21219669    -0.39840
O1785       O  0.42374638  0.75423154  0.14459546    -0.40540
O1786       O  0.45206657  0.79229530  0.13001558    -0.40610
C1787       C  0.48875700  0.73408520  0.83790246    -0.12890
C1788       C  0.51279038  0.74775149  0.85416034     0.04120
C1789       C  0.53661577  0.76178822  0.83757177    -0.08180
C1790       C  0.53573928  0.76199540  0.80577024    -0.08920
C1791       C  0.51119600  0.74971807  0.78936944    -0.03470
C1792       C  0.48730613  0.73520533  0.80572268     0.03340
N1793       N  0.46099786  0.72263187  0.79063309     0.65850
H1794       H  0.47017841  0.72377852  0.85046139     0.14750
H1795       H  0.55405605  0.77326139  0.79378037     0.14460
N1796       N  0.56038008  0.77873568  0.85232851     0.73560
O1797       O  0.44747974  0.69983127  0.80189743    -0.39900
O1798       O  0.44941034  0.73577044  0.76778111    -0.39840
O1799       O  0.58783805  0.77300536  0.84601148    -0.40540
O1800       O  0.55396963  0.80350199  0.86562453    -0.40610
C1801       C  0.81784428  0.76447495  0.98689479    -0.12890
C1802       C  0.80335672  0.73553288  0.98886951     0.04120
C1803       C  0.82345624  0.70974911  0.98875422    -0.08180
C1804       C  0.85442454  0.71348165  0.99455453    -0.08920
C1805       C  0.86787976  0.74218347  0.99629921    -0.03470
C1806       C  0.84973211  0.76830719  0.99094117     0.03340
N1807       N  0.86285892  0.79852860  0.98946332     0.65850
H1808       H  0.80498326  0.78445510  0.98130458     0.14750
H1809       H  0.86882591  0.69332345  0.99524896     0.14460
N1810       N  0.81444965  0.68014713  0.97813047     0.73560
O1811       O  0.84739214  0.82070980  0.97946535    -0.39900
O1812       O  0.88942478  0.80364771  0.99928242    -0.39840
O1813       O  0.80819086  0.67695353  0.95019524    -0.40540
O1814       O  0.82210354  0.65680940  0.99323644    -0.40610
C1815       C  0.19910583  0.71766524  0.01965396    -0.12890
C1816       C  0.21390243  0.73438790  0.99664469     0.04120
C1817       C  0.19613918  0.75508426  0.97892585    -0.08180
C1818       C  0.16436318  0.75666038  0.98354822    -0.08920
C1819       C  0.14975527  0.73825824  0.00524152    -0.03470
C1820       C  0.16766412  0.71911448  0.02394415     0.03340
N1821       N  0.15409666  0.69846334  0.04526744     0.65850
H1822       H  0.21196025  0.70222014  0.03402831     0.14750
H1823       H  0.15069581  0.77107117  0.96880360     0.14460
N1824       N  0.20903302  0.77313597  0.95491514     0.73560
O1825       O  0.15541202  0.67006186  0.04047860    -0.39900
O1826       O  0.14567061  0.70811049  0.07104369    -0.39840
O1827       O  0.22483647  0.76068369  0.93441289    -0.40540
O1828       O  0.20043431  0.80041662  0.95128785    -0.40610
C1829       C  0.99234340  0.75624003  0.81190043    -0.12890
C1830       C  0.01470862  0.73861982  0.79703119     0.04120
C1831       C  0.03720776  0.72402751  0.81490713    -0.08180
C1832       C  0.03729180  0.72762375  0.84647021    -0.08920
C1833       C  0.01445807  0.74422285  0.86151618    -0.03470
C1834       C  0.99202991  0.75948792  0.84396708     0.03340
N1835       N  0.96897073  0.77810628  0.85814991     0.65850
H1836       H  0.97436593  0.76659297  0.79856427     0.14750
H1837       H  0.05423755  0.71511316  0.85943223     0.14460
N1838       N  0.05897747  0.70356054  0.80178548     0.73560
O1839       O  0.94435931  0.78378016  0.84430334    -0.39900
O1840       O  0.97437437  0.79168074  0.88300150    -0.39840
O1841       O  0.08620663  0.71226253  0.79882561    -0.40540
O1842       O  0.05348243  0.67527286  0.80228451    -0.40610
C1843       C  0.03304888  0.73831073  0.15995485    -0.12890
C1844       C  0.00598804  0.74268607  0.14331148     0.04120
C1845       C  0.97849170  0.74690136  0.15960284    -0.08180
C1846       C  0.97836628  0.74339914  0.19145107    -0.08920
C1847       C  0.00522961  0.73805185  0.20808705    -0.03470
C1848       C  0.03307943  0.73597019  0.19196137     0.03340
N1849       N  0.06138063  0.73011684  0.20737957     0.65850
H1850       H  0.05436194  0.73537748  0.14789441     0.14750
H1851       H  0.95684961  0.74477325  0.20324024     0.14460
N1852       N  0.95047741  0.75437429  0.14430618     0.73560
O1853       O  0.08187796  0.71443893  0.19462001    -0.39900
O1854       O  0.06737246  0.74332821  0.23221041    -0.39840
O1855       O  0.92553333  0.74365579  0.15380606    -0.40540
O1856       O  0.95007293  0.77506556  0.12425316    -0.40610
C1857       C  0.84650420  0.23962178  0.02342354    -0.12890
C1858       C  0.85978525  0.24689991  0.99532704     0.04120
C1859       C  0.84024667  0.25240799  0.97016452    -0.08180
C1860       C  0.80846533  0.25130818  0.97421117    -0.08920
C1861       C  0.79533325  0.24905390  0.00343378    -0.03470
C1862       C  0.81498203  0.24175810  0.02813307     0.03340
N1863       N  0.80421258  0.23817882  0.05864045     0.65850
H1864       H  0.86100647  0.23486363  0.04289073     0.14750
H1865       H  0.79411664  0.25436696  0.95442994     0.14460
N1866       N  0.85176047  0.26253993  0.94132754     0.73560
O1867       O  0.81448151  0.21650902  0.07466054    -0.39900
O1868       O  0.79236167  0.26071538  0.07194772    -0.39840
O1869       O  0.84372232  0.24886586  0.91727318    -0.40540
O1870       O  0.86277134  0.28909550  0.93923057    -0.40610
C1871       C  0.03711417  0.24515673  0.84289480    -0.12890
C1872       C  0.00763487  0.24522525  0.85525346     0.04120
C1873       C  0.98259970  0.24483068  0.83482227    -0.08180
C1874       C  0.98777860  0.24526618  0.80311598    -0.08920
C1875       C  0.01728058  0.24874844  0.79105885    -0.03470
C1876       C  0.04222926  0.24848637  0.81157615     0.03340
N1877       N  0.07277104  0.25439398  0.80195066     0.65850
H1878       H  0.05674644  0.24555000  0.85790354     0.14750
H1879       H  0.96835906  0.24489195  0.78785954     0.14460
N1880       N  0.95186234  0.24617839  0.84552619     0.73560
O1881       O  0.07954195  0.28102668  0.79351523    -0.39900
O1882       O  0.09389330  0.23726266  0.81147650    -0.39840
O1883       O  0.94096711  0.27158644  0.85367066    -0.40540
O1884       O  0.93388141  0.22455502  0.83935295    -0.40610
C1885       C  0.15769719  0.24368445  0.02661535    -0.12890
C1886       C  0.14066275  0.23484025  0.00086362     0.04120
C1887       C  0.15634386  0.22431630  0.97471322    -0.08180
C1888       C  0.18830189  0.22627159  0.97388287    -0.08920
C1889       C  0.20494382  0.23896914  0.99814704    -0.03470
C1890       C  0.18962334  0.24610813  0.02560917     0.03340
N1891       N  0.20585610  0.25692712  0.05214642     0.65850
H1892       H  0.14594619  0.25086612  0.04709751     0.14750
H1893       H  0.20005035  0.22028411  0.95313817     0.14460
N1894       N  0.14024246  0.21306157  0.94839481     0.73560
O1895       O  0.19217329  0.27214332  0.07241329    -0.39900
O1896       O  0.23305842  0.24891363  0.05698611    -0.39840
O1897       O  0.15092195  0.21709069  0.92196315    -0.40540
O1898       O  0.11682094  0.19665362  0.95160290    -0.40610
C1899       C  0.01847068  0.22824281  0.15559962    -0.12890
C1900       C  0.99683328  0.24597314  0.13986706     0.04120
C1901       C  0.97587118  0.26354947  0.15692658    -0.08180
C1902       C  0.97715697  0.26318765  0.18870044    -0.08920
C1903       C  0.99973334  0.24702972  0.20465229    -0.03470
C1904       C  0.02046461  0.22863666  0.18782885     0.03340
N1905       N  0.04421406  0.21127792  0.20242699     0.65850
H1906       H  0.03484377  0.21509143  0.14259794     0.14750
H1907       H  0.96115457  0.27731822  0.20112504     0.14460
N1908       N  0.95524878  0.28458600  0.14264763     0.73560
O1909       O  0.05344349  0.18667944  0.19056829    -0.39900
O1910       O  0.05787575  0.22151295  0.22561488    -0.39840
O1911       O  0.92759206  0.28489642  0.15048384    -0.40540
O1912       O  0.96576421  0.30693134  0.12783210    -0.40610
C1913       C  0.81160742  0.47251917  0.25294294    -0.12890
C1914       C  0.79778554  0.49984509  0.24319593     0.04120
C1915       C  0.81670724  0.52437443  0.23421528    -0.08180
C1916       C  0.84831405  0.52144176  0.23601811    -0.08920
C1917       C  0.86232268  0.49390695  0.24450537    -0.03470
C1918       C  0.84352619  0.46899368  0.25281724     0.03340
N1919       N  0.85609646  0.43960977  0.25960010     0.65850
H1920       H  0.79745701  0.45305961  0.25859414     0.14750
H1921       H  0.86200342  0.54080915  0.22910783     0.14460
N1922       N  0.80456349  0.55237432  0.22248865     0.73560
O1923       O  0.85079777  0.42756320  0.28519492    -0.39900
O1924       O  0.86527432  0.42291343  0.23799912    -0.39840
O1925       O  0.78966883  0.56974164  0.23986228    -0.40540
O1926       O  0.81500060  0.56312685  0.19791234    -0.40610
C1927       C  0.16296655  0.50981790  0.26032513    -0.12890
C1928       C  0.14676827  0.48759743  0.24377065     0.04120
C1929       C  0.16325872  0.46572834  0.22672635    -0.08180
C1930       C  0.19493569  0.46668389  0.22643530    -0.08920
C1931       C  0.21134971  0.48957869  0.24161043    -0.03470
C1932       C  0.19515045  0.51133130  0.25943510     0.03340
N1933       N  0.21033115  0.53544950  0.27586410     0.65850
H1934       H  0.15035887  0.52684977  0.27304452     0.14750
H1935       H  0.20689256  0.44987442  0.21283615     0.14460
N1936       N  0.14844812  0.44423429  0.20696135     0.73560
O1937       O  0.19844689  0.54641620  0.29969069    -0.39900
O1938       O  0.23434694  0.54749142  0.26566894    -0.39840
O1939       O  0.13371574  0.45383993  0.18413746    -0.40540
O1940       O  0.15571292  0.41636612  0.20818965    -0.40610
C1941       C  0.97581541  0.64741020  0.24633587    -0.12890
C1942       C  0.00344504  0.63182677  0.25105468     0.04120
C1943       C  0.03008218  0.64914725  0.25640910    -0.08180
C1944       C  0.02883897  0.68114359  0.25482227    -0.08920
C1945       C  0.00155180  0.69664156  0.24836394    -0.03470
C1946       C  0.97452150  0.67942202  0.24451582     0.03340
N1947       N  0.94588740  0.69368514  0.23733570     0.65850
H1948       H  0.95511488  0.63454265  0.24239019     0.14750
H1949       H  0.04970963  0.69388299  0.25773033     0.14460
N1950       N  0.05877798  0.63468932  0.26238473     0.73560
O1951       O  0.92677638  0.68017891  0.22051296    -0.39900
O1952       O  0.93830404  0.71838054  0.24998832    -0.39840
O1953       O  0.08229116  0.64286289  0.24799499    -0.40540
O1954       O  0.06121106  0.61563363  0.28385654    -0.40610
C1955       C  0.97817116  0.30235651  0.25674107    -0.12890
C1956       C  0.00403623  0.28642563  0.24664229     0.04120
C1957       C  0.03105092  0.30278095  0.24118181    -0.08180
C1958       C  0.03133471  0.33457850  0.24381454    -0.08920
C1959       C  0.00477128  0.35096107  0.25110790    -0.03470
C1960       C  0.97820943  0.33445121  0.25928370     0.03340
N1961       N  0.95111389  0.34978063  0.26955503     0.65850
H1962       H  0.95748518  0.28979212  0.26140625     0.14750
H1963       H  0.05207226  0.34654585  0.23781824     0.14460
N1964       N  0.05808273  0.28758552  0.23132584     0.73560
O1965       O  0.92519741  0.33839544  0.26431866    -0.39900
O1966       O  0.95310439  0.37265734  0.28699275    -0.39840
O1967       O  0.06484817  0.28756613  0.20335205    -0.40540
O1968       O  0.07809432  0.28040632  0.25074356    -0.40610
C1969       C  0.23879740  0.51794684  0.84166096    -0.12890
C1970       C  0.24990778  0.49214900  0.85710705     0.04120
C1971       C  0.26212249  0.46781955  0.83977420    -0.08180
C1972       C  0.26285875  0.46991354  0.80774266    -0.08920
C1973       C  0.24909886  0.49454102  0.79242150    -0.03470
C1974       C  0.23742446  0.51918392  0.80978553     0.03340
N1975       N  0.22355320  0.54541769  0.79563078     0.65850
H1976       H  0.22951813  0.53692577  0.85448845     0.14750
H1977       H  0.27204478  0.45101679  0.79475157     0.14460
N1978       N  0.27228787  0.44020424  0.85397329     0.73560
O1979       O  0.20208911  0.55933809  0.80881838    -0.39900
O1980       O  0.23480964  0.55686997  0.77179344    -0.39840
O1981       O  0.25280892  0.42122798  0.86337827    -0.40540
O1982       O  0.29936785  0.43142522  0.84996464    -0.40610
C1983       C  0.25452327  0.51851393  0.15386311    -0.12890
C1984       C  0.25988612  0.49109694  0.13800069     0.04120
C1985       C  0.26545345  0.46417240  0.15500325    -0.08180
C1986       C  0.26178769  0.46474047  0.18687908    -0.08920
C1987       C  0.25343944  0.49157589  0.20230696    -0.03470
C1988       C  0.25080487  0.51886033  0.18554851     0.03340
N1989       N  0.24232337  0.54682358  0.19999970     0.65850
H1990       H  0.25055123  0.53955358  0.14148273     0.14750
H1991       H  0.26408859  0.44376738  0.19949776     0.14460
N1992       N  0.27405209  0.43607899  0.14033726     0.73560
O1993       O  0.26186762  0.56776429  0.20283933    -0.39900
O1994       O  0.21443883  0.55326318  0.20273483    -0.39840
O1995       O  0.29261408  0.43637077  0.11836310    -0.40540
O1996       O  0.26609878  0.41074556  0.15153591    -0.40610
C1997       C  0.25024388  0.64343714  0.96658299    -0.12890
C1998       C  0.25948812  0.62889486  0.99365872     0.04120
C1999       C  0.26924268  0.64710959  0.01852020    -0.08180
C2000       C  0.26665682  0.67914851  0.01644371    -0.08920
C2001       C  0.25440513  0.69332290  0.99033454    -0.03470
C2002       C  0.24650287  0.67504991  0.96501400     0.03340
N2003       N  0.23254421  0.68764127  0.93824378     0.65850
H2004       H  0.24274321  0.63004885  0.94718551     0.14750
H2005       H  0.27281580  0.69309868  0.03589430     0.14460
N2006       N  0.28129295  0.63361203  0.04593509     0.73560
O2007       O  0.24284704  0.68049512  0.91232444    -0.39900
O2008       O  0.20595712  0.69842036  0.93997782    -0.39840
O2009       O  0.29742014  0.60977340  0.04452629    -0.40540
O2010       O  0.27885375  0.64731880  0.07117152    -0.40610
C2011       C  0.22594946  0.33410959  0.97562168    -0.12890
C2012       C  0.24797199  0.34823136  0.99401870     0.04120
C2013       C  0.26815357  0.32976717  0.01131167    -0.08180
C2014       C  0.26408924  0.29768827  0.01071656    -0.08920
C2015       C  0.24210433  0.28347551  0.99191947    -0.03470
C2016       C  0.22298201  0.30246571  0.97409071     0.03340
N2017       N  0.19992998  0.29026728  0.95441330     0.65850
H2018       H  0.21018378  0.34791358  0.96245336     0.14750
H2019       H  0.27763822  0.28389597  0.02586313     0.14460
N2020       N  0.29307886  0.34258977  0.02876900     0.73560
O2021       O  0.17264354  0.29886236  0.95749444    -0.39900
O2022       O  0.20754152  0.27609637  0.93054568    -0.39840
O2023       O  0.29881438  0.37082249  0.02812195    -0.40540
O2024       O  0.31160567  0.32521548  0.04240559    -0.40610
C2025       C  0.15984600  0.46586295  0.76053850    -0.12890
C2026       C  0.14451428  0.49140651  0.74871097     0.04120
C2027       C  0.16188960  0.51546444  0.73615560    -0.08180
C2028       C  0.19388937  0.51374850  0.73651597    -0.08920
C2029       C  0.20901869  0.48952152  0.75120363    -0.03470
C2030       C  0.19160480  0.46484378  0.76260332     0.03340
N2031       N  0.20558513  0.43882199  0.77697293     0.65850
H2032       H  0.14701733  0.44696152  0.76992121     0.14750
H2033       H  0.20690107  0.53259207  0.72730303     0.14460
N2034       N  0.14766817  0.54234478  0.72425005     0.73560
O2035       O  0.19254214  0.42568592  0.79901512    -0.39900
O2036       O  0.22885604  0.42656210  0.76541761    -0.39840
O2037       O  0.13822871  0.56255416  0.74247531    -0.40540
O2038       O  0.15145562  0.54921633  0.69655858    -0.40610
C2039       C  0.03588844  0.33989263  0.74100882    -0.12890
C2040       C  0.00706109  0.35250345  0.74698983     0.04120
C2041       C  0.98198367  0.33238166  0.74951998    -0.08180
C2042       C  0.98721182  0.30070213  0.75096045    -0.08920
C2043       C  0.01658652  0.28809378  0.74816717    -0.03470
C2044       C  0.04103093  0.30809002  0.74084126     0.03340
N2045       N  0.07123278  0.29714706  0.73409772     0.65850
H2046       H  0.05496866  0.35513315  0.73742314     0.14750
H2047       H  0.96801062  0.28569470  0.75465454     0.14460
N2048       N  0.95124500  0.34351657  0.75106310     0.73560
O2049       O  0.09395315  0.31467811  0.73658498    -0.39900
O2050       O  0.07525014  0.27089310  0.72315352    -0.39840
O2051       O  0.94204823  0.36291036  0.73182485    -0.40540
O2052       O  0.93199708  0.33032651  0.76789191    -0.40610
C2053       C  0.98379021  0.68482291  0.76919240    -0.12890
C2054       C  0.00813368  0.69969288  0.75481854     0.04120
C2055       C  0.02843372  0.68221963  0.73657140    -0.08180
C2056       C  0.02472619  0.65022362  0.73519236    -0.08920
C2057       C  0.00176280  0.63533359  0.75179535    -0.03470
C2058       C  0.98066763  0.65315980  0.76846823     0.03340
N2059       N  0.95813382  0.63961398  0.78783755     0.65850
H2060       H  0.96812028  0.69789273  0.78315532     0.14750
H2061       H  0.04108604  0.63663753  0.72261970     0.14460
N2062       N  0.05387765  0.69576578  0.72101738     0.73560
O2063       O  0.96649453  0.62526560  0.81139204    -0.39900
O2064       O  0.93070052  0.64796421  0.78554768    -0.39840
O2065       O  0.06947574  0.71643819  0.73358118    -0.40540
O2066       O  0.06288592  0.68474947  0.69597772    -0.40610
C2067       C  0.81369590  0.46809500  0.77331707    -0.12890
C2068       C  0.79735501  0.48957614  0.75609992     0.04120
C2069       C  0.81390843  0.51170551  0.73919981    -0.08180
C2070       C  0.84606240  0.51063496  0.73910040    -0.08920
C2071       C  0.86206766  0.48935940  0.75692706    -0.03470
C2072       C  0.84541995  0.46832607  0.77484325     0.03340
N2073       N  0.85989987  0.44949306  0.79743362     0.65850
H2074       H  0.80151588  0.45213660  0.78763642     0.14750
H2075       H  0.85871465  0.52765920  0.72643813     0.14460
N2076       N  0.79905178  0.53679400  0.72428852     0.73560
O2077       O  0.87560598  0.46185840  0.81819375    -0.39900
O2078       O  0.85156242  0.42210468  0.80073712    -0.39840
O2079       O  0.77879655  0.55185638  0.73808276    -0.40540
O2080       O  0.80943966  0.54696345  0.69943873    -0.40610
C2081       C  0.75966088  0.30564121  0.97699878    -0.12890
C2082       C  0.75500085  0.29100999  0.00522289     0.04120
C2083       C  0.74784053  0.30954451  0.03075986    -0.08180
C2084       C  0.74776373  0.34156293  0.02768955    -0.08920
C2085       C  0.75296298  0.35582698  0.99944868    -0.03470
C2086       C  0.75673120  0.33726505  0.97340696     0.03340
N2087       N  0.75707789  0.34985594  0.94313856     0.65850
H2088       H  0.76379577  0.29230940  0.95680442     0.14750
H2089       H  0.74408984  0.35548885  0.04779162     0.14460
N2090       N  0.74137758  0.29674813  0.06010269     0.73560
O2091       O  0.77464716  0.33888622  0.92315455    -0.39900
O2092       O  0.73601413  0.36769433  0.93487741    -0.39840
O2093       O  0.75231817  0.30909193  0.08376047    -0.40540
O2094       O  0.71942004  0.27844140  0.06292920    -0.40610
C2095       C  0.74305611  0.64961016  0.97650422    -0.12890
C2096       C  0.75246768  0.63524464  0.00360726     0.04120
C2097       C  0.76089984  0.65373237  0.02877901    -0.08180
C2098       C  0.76300985  0.68536244  0.02516807    -0.08920
C2099       C  0.75760383  0.69928216  0.99688532    -0.03470
C2100       C  0.74612353  0.68135792  0.97242171     0.03340
N2101       N  0.74102853  0.69388994  0.94245558     0.65850
H2102       H  0.73642557  0.63565530  0.95718310     0.14750
H2103       H  0.77233937  0.69875469  0.04374071     0.14460
N2104       N  0.77171420  0.64086073  0.05677029     0.73560
O2105       O  0.75742712  0.71529988  0.93237019    -0.39900
O2106       O  0.72152483  0.68191323  0.92493971    -0.39840
O2107       O  0.79941271  0.63340701  0.05907909    -0.40540
O2108       O  0.75607958  0.64403831  0.08069098    -0.40610
C2109       C  0.74649515  0.52093526  0.15382941    -0.12890
C2110       C  0.75324543  0.49309141  0.13945522     0.04120
C2111       C  0.75823573  0.46705011  0.15789192    -0.08180
C2112       C  0.76068029  0.47053175  0.18957390    -0.08920
C2113       C  0.75561361  0.49867849  0.20407167    -0.03470
C2114       C  0.74718297  0.52420376  0.18582297     0.03340
N2115       N  0.74112842  0.55390433  0.19856560     0.65850
H2116       H  0.74186621  0.54078498  0.13982998     0.14750
H2117       H  0.76753215  0.45101033  0.20305208     0.14460
N2118       N  0.76190575  0.43712901  0.14499274     0.73560
O2119       O  0.74500707  0.57765172  0.18268969    -0.39900
O2120       O  0.72999523  0.55669565  0.22485783    -0.39840
O2121       O  0.78203399  0.41930072  0.15534731    -0.40540
O2122       O  0.74175786  0.42665158  0.12725824    -0.40610
C2123       C  0.74121742  0.47532769  0.84428776    -0.12890
C2124       C  0.75511786  0.50040037  0.85855521     0.04120
C2125       C  0.76712970  0.52403867  0.84004057    -0.08180
C2126       C  0.76582692  0.52141461  0.80823311    -0.08920
C2127       C  0.75461859  0.49501917  0.79393975    -0.03470
C2128       C  0.74138584  0.47207122  0.81239209     0.03340
N2129       N  0.73136636  0.44374473  0.79982322     0.65850
H2130       H  0.73230705  0.45686152  0.85810053     0.14750
H2131       H  0.77671678  0.53889748  0.79465679     0.14460
N2132       N  0.78443859  0.54878670  0.85264958     0.73560
O2133       O  0.75097404  0.42361927  0.79361972    -0.39900
O2134       O  0.70401906  0.43573118  0.80364969    -0.39840
O2135       O  0.80993635  0.54331200  0.86487129    -0.40540
O2136       O  0.77823395  0.57583616  0.84486887    -0.40610
C2137       C  0.24273381  0.47597271  0.65411612    -0.12890
C2138       C  0.25795651  0.49990232  0.63931477     0.04120
C2139       C  0.27209662  0.52283150  0.65725610    -0.08180
C2140       C  0.27069600  0.52112657  0.68908080    -0.08920
C2141       C  0.25742552  0.49613891  0.70395566    -0.03470
C2142       C  0.24284059  0.47348000  0.68608556     0.03340
N2143       N  0.23065219  0.44637954  0.69943076     0.65850
H2144       H  0.23240619  0.45792782  0.64069114     0.14750
H2145       H  0.28262466  0.53822084  0.70234210     0.14460
N2146       N  0.29130914  0.54575961  0.64403421     0.73560
O2147       O  0.20282609  0.44024320  0.69550123    -0.39900
O2148       O  0.24864985  0.42511107  0.70666259    -0.39840
O2149       O  0.28836375  0.57325487  0.65218086    -0.40540
O2150       O  0.31537075  0.53777520  0.63043347    -0.40610
C2151       C  0.24050860  0.47233067  0.34070484    -0.12890
C2152       C  0.25938623  0.49333492  0.35584429     0.04120
C2153       C  0.27799438  0.51286859  0.33830050    -0.08180
C2154       C  0.27781498  0.51054139  0.30662537    -0.08920
C2155       C  0.26067182  0.48829264  0.29110777    -0.03470
C2156       C  0.24075091  0.46948678  0.30855539     0.03340
N2157       N  0.22097603  0.44729210  0.29475534     0.65850
H2158       H  0.22621291  0.45728696  0.35409415     0.14750
H2159       H  0.29252338  0.52582342  0.29410494     0.14460
N2160       N  0.29955685  0.53326100  0.35211177     0.73560
O2161       O  0.19475792  0.44272867  0.30565243    -0.39900
O2162       O  0.23047609  0.43005681  0.27381049    -0.39840
O2163       O  0.32124081  0.52247693  0.36769701    -0.40540
O2164       O  0.30086884  0.56069938  0.34338836    -0.40610
C2165       C  0.26980145  0.65009772  0.46381350    -0.12890
C2166       C  0.26061986  0.63643180  0.49132281     0.04120
C2167       C  0.25138644  0.65549186  0.51566826    -0.08180
C2168       C  0.25182539  0.68739028  0.51201595    -0.08920
C2169       C  0.26212973  0.70083105  0.48478745    -0.03470
C2170       C  0.27113886  0.68180788  0.46041012     0.03340
N2171       N  0.28129473  0.69418883  0.43185710     0.65850
H2172       H  0.27692314  0.63604508  0.44477719     0.14750
H2173       H  0.24559754  0.70180771  0.53111908     0.14460
N2174       N  0.24241666  0.64309374  0.54447169     0.73560
O2175       O  0.30265824  0.68139860  0.41743131    -0.39900
O2176       O  0.26598099  0.71474786  0.41876754    -0.39840
O2177       O  0.26263291  0.63470040  0.56319116    -0.40540
O2178       O  0.21562706  0.64749578  0.55390098    -0.40610
C2179       C  0.23993736  0.33686750  0.48114893    -0.12890
C2180       C  0.25588643  0.35259346  0.50408920     0.04120
C2181       C  0.27084900  0.33550501  0.52707675    -0.08180
C2182       C  0.27007287  0.30367628  0.52617483    -0.08920
C2183       C  0.25617285  0.28773212  0.50214465    -0.03470
C2184       C  0.24019972  0.30467381  0.47955178     0.03340
N2185       N  0.22582175  0.29019122  0.45393095     0.65850
H2186       H  0.22875180  0.34977643  0.46325830     0.14750
H2187       H  0.28287834  0.29125923  0.54325811     0.14460
N2188       N  0.29016101  0.34966617  0.54939349     0.73560
O2189       O  0.20059581  0.30007367  0.44418119    -0.39900
O2190       O  0.24012667  0.27074992  0.43829836    -0.39840
O2191       O  0.28714680  0.34283658  0.57720295    -0.40540
O2192       O  0.31421992  0.36292781  0.54085580    -0.40610
C2193       C  0.52414454  0.64953926  0.76215936    -0.12890
C2194       C  0.50073275  0.63471273  0.74604610     0.04120
C2195       C  0.47901538  0.65265483  0.73024246    -0.08180
C2196       C  0.48214115  0.68433493  0.72958295    -0.08920
C2197       C  0.50693508  0.69913754  0.74334057    -0.03470
C2198       C  0.52774254  0.68155647  0.76097936     0.03340
N2199       N  0.55354630  0.69500732  0.77611888     0.65850
H2200       H  0.54090175  0.63589903  0.77418217     0.14750
H2201       H  0.46604611  0.69747955  0.71613933     0.14460
N2202       N  0.45565143  0.63923802  0.71170805     0.73560
O2203       O  0.56321813  0.68374992  0.80082488    -0.39900
O2204       O  0.56877555  0.71584696  0.76346277    -0.39840
O2205       O  0.42828045  0.64716693  0.71557303    -0.40540
O2206       O  0.46291434  0.62553162  0.68743205    -0.40610
C2207       C  0.65892912  0.46221757  0.73895771    -0.12890
C2208       C  0.64458667  0.48947448  0.74789924     0.04120
C2209       C  0.66304482  0.51466859  0.75634892    -0.08180
C2210       C  0.69504780  0.51195690  0.75481740    -0.08920
C2211       C  0.70913196  0.48494369  0.74461482    -0.03470
C2212       C  0.69056268  0.45991950  0.73635222     0.03340
N2213       N  0.70310209  0.43229388  0.72407395     0.65850
H2214       H  0.64541174  0.44268878  0.73209850     0.14750
H2215       H  0.70910158  0.53148266  0.76053616     0.14460
N2216       N  0.64991039  0.54321346  0.76577103     0.73560
O2217       O  0.69119819  0.42034928  0.70069649    -0.39900
O2218       O  0.72139876  0.41666791  0.73979773    -0.39840
O2219       O  0.62746778  0.54361641  0.78373688    -0.40540
O2220       O  0.66266333  0.56808798  0.75878440    -0.40610
C2221       C  0.31306500  0.46565617  0.73097029    -0.12890
C2222       C  0.29755185  0.48998635  0.74471986     0.04120
C2223       C  0.31481580  0.51289983  0.75963466    -0.08180
C2224       C  0.34681255  0.51147760  0.75934160    -0.08920
C2225       C  0.36215058  0.48825053  0.74358388    -0.03470
C2226       C  0.34482987  0.46496777  0.72924944     0.03340
N2227       N  0.35853990  0.44274070  0.70949939     0.65850
H2228       H  0.30031581  0.44839802  0.71876077     0.14750
H2229       H  0.35975850  0.52970130  0.76994583     0.14460
N2230       N  0.30075676  0.53921727  0.77266936     0.73560
O2231       O  0.35119214  0.41498209  0.71195159    -0.39900
O2232       O  0.37193608  0.45151205  0.68557937    -0.39840
O2233       O  0.30346092  0.54381471  0.80097843    -0.40540
O2234       O  0.29453267  0.56150122  0.75552646    -0.40610
C2235       C  0.47784847  0.30382520  0.73381011    -0.12890
C2236       C  0.50336620  0.28863272  0.74544157     0.04120
C2237       C  0.52626150  0.30576825  0.76079030    -0.08180
C2238       C  0.52343246  0.33785049  0.76218729    -0.08920
C2239       C  0.49847455  0.35304700  0.74900925    -0.03470
C2240       C  0.47456317  0.33538789  0.73629983     0.03340
N2241       N  0.44757346  0.34906841  0.72393741     0.65850
H2242       H  0.46031767  0.29088146  0.72207117     0.14750
H2243       H  0.54190105  0.35123129  0.77172031     0.14460
N2244       N  0.55365729  0.29184996  0.77238908     0.73560
O2245       O  0.43970038  0.34334269  0.69681043    -0.39900
O2246       O  0.42889989  0.36203765  0.74157712    -0.39840
O2247       O  0.56549170  0.26922307  0.75908817    -0.40540
O2248       O  0.56782518  0.30402767  0.79434529    -0.40610
C2249       C  0.75638014  0.64737704  0.46968042    -0.12890
C2250       C  0.75478741  0.63217164  0.49788745     0.04120
C2251       C  0.75512823  0.64994629  0.52484866    -0.08180
C2252       C  0.75493475  0.68187134  0.52300737    -0.08920
C2253       C  0.75450682  0.69707306  0.49483068    -0.03470
C2254       C  0.75609703  0.67946584  0.46779610     0.03340
N2255       N  0.75618549  0.69359129  0.43827830     0.65850
H2256       H  0.75657240  0.63422403  0.44874362     0.14750
H2257       H  0.75359824  0.69477561  0.54397694     0.14460
N2258       N  0.75337979  0.63618722  0.55435882     0.73560
O2259       O  0.74217736  0.68131691  0.41627700    -0.39900
O2260       O  0.77393069  0.71555913  0.43299118    -0.39840
O2261       O  0.77735668  0.63276945  0.56990379    -0.40540
O2262       O  0.72778154  0.63331042  0.56711525    -0.40610
C2263       C  0.74347133  0.51458403  0.69066942    -0.12890
C2264       C  0.75096398  0.48704514  0.70524207     0.04120
C2265       C  0.76153870  0.46227494  0.68715957    -0.08180
C2266       C  0.76213553  0.46554418  0.65509831    -0.08920
C2267       C  0.75382234  0.49300595  0.64066866    -0.03470
C2268       C  0.74641070  0.51843611  0.65913205     0.03340
N2269       N  0.74100560  0.54814243  0.64640698     0.65850
H2270       H  0.73513371  0.53355975  0.70414040     0.14750
H2271       H  0.76834968  0.44611837  0.64111755     0.14460
N2272       N  0.77003577  0.43331553  0.70022221     0.73560
O2273       O  0.71879143  0.56396317  0.65561138    -0.39900
O2274       O  0.76147878  0.56076639  0.63062972    -0.39840
O2275       O  0.76785591  0.40914205  0.68463852    -0.40540
O2276       O  0.78200431  0.43183669  0.72633382    -0.40610
C2277       C  0.72912293  0.29973956  0.52314780    -0.12890
C2278       C  0.74682493  0.28385700  0.50165901     0.04120
C2279       C  0.76541637  0.30116797  0.48150728    -0.08180
C2280       C  0.76606514  0.33323143  0.48399254    -0.08920
C2281       C  0.74724915  0.34867679  0.50463092    -0.03470
C2282       C  0.72807348  0.33155722  0.52403682     0.03340
N2283       N  0.70459810  0.34575467  0.54188723     0.65850
H2284       H  0.71384501  0.28728496  0.53795522     0.14750
H2285       H  0.77977704  0.34635128  0.46818118     0.14460
N2286       N  0.78120255  0.28749391  0.45645414     0.73560
O2287       O  0.68486708  0.36214137  0.52877330    -0.39900
O2288       O  0.69943766  0.33647206  0.56864929    -0.39840
O2289       O  0.76651354  0.27207666  0.43709688    -0.40540
O2290       O  0.80775266  0.29641387  0.44989528    -0.40610
C2291       C  0.76839113  0.50767892  0.34312784    -0.12890
C2292       C  0.75128324  0.48519797  0.35798653     0.04120
C2293       C  0.73455264  0.46411516  0.34013629    -0.08180
C2294       C  0.73548719  0.46606810  0.30830943    -0.08920
C2295       C  0.75077354  0.48985698  0.29311970    -0.03470
C2296       C  0.76773968  0.51073252  0.31117595     0.03340
N2297       N  0.78076748  0.53763806  0.29846855     0.65850
H2298       H  0.78046326  0.52457866  0.35658818     0.14750
H2299       H  0.72129951  0.45044515  0.29558912     0.14460
N2300       N  0.71315138  0.44332226  0.35356144     0.73560
O2301       O  0.76358177  0.56031089  0.29406109    -0.39900
O2302       O  0.80903031  0.54205385  0.30154590    -0.39840
O2303       O  0.69087286  0.45377437  0.36847187    -0.40540
O2304       O  0.71231839  0.41592943  0.34461175    -0.40610
C2305       C  0.66401098  0.74077835  0.52232426    -0.12890
C2306       C  0.64795907  0.74088936  0.49450881     0.04120
C2307       C  0.66480095  0.74095664  0.46700418    -0.08180
C2308       C  0.69647880  0.73705217  0.46806856    -0.08920
C2309       C  0.71258796  0.73674484  0.49570874    -0.03470
C2310       C  0.69605712  0.73898288  0.52342015     0.03340
N2311       N  0.71083760  0.73755614  0.55276242     0.65850
H2312       H  0.65141370  0.74099085  0.54354616     0.14750
H2313       H  0.70869739  0.73421693  0.44688945     0.14460
N2314       N  0.65027371  0.74488037  0.43785389     0.73560
O2315       O  0.73687170  0.74902748  0.55677001    -0.39900
O2316       O  0.69691673  0.72671732  0.57550459    -0.39840
O2317       O  0.63127231  0.76621597  0.43411049    -0.40540
O2318       O  0.66003332  0.73069159  0.41476306    -0.40610
C2319       C  0.53456301  0.72595222  0.65124416    -0.12890
C2320       C  0.51190525  0.74292623  0.63628641     0.04120
C2321       C  0.49003973  0.75879292  0.65395565    -0.08180
C2322       C  0.49069086  0.75568119  0.68606558    -0.08920
C2323       C  0.51301443  0.73787670  0.70088674    -0.03470
C2324       C  0.53498280  0.72275905  0.68284454     0.03340
N2325       N  0.55674202  0.70219212  0.69586514     0.65850
H2326       H  0.55109945  0.71302214  0.63820837     0.14750
H2327       H  0.47298959  0.76630562  0.69946173     0.14460
N2328       N  0.46735374  0.77803808  0.63990291     0.73560
O2329       O  0.55143911  0.67388226  0.69473725    -0.39900
O2330       O  0.58387533  0.71102356  0.69937025    -0.39840
O2331       O  0.47253075  0.79070299  0.61456051    -0.40540
O2332       O  0.44355968  0.78532939  0.65433290    -0.40610
C2333       C  0.31380188  0.73665614  0.51590443    -0.12890
C2334       C  0.30057927  0.74331152  0.48745313     0.04120
C2335       C  0.31996656  0.75231862  0.46318090    -0.08180
C2336       C  0.35174314  0.75218892  0.46763374    -0.08920
C2337       C  0.36494156  0.74311696  0.49540468    -0.03470
C2338       C  0.34543784  0.73609614  0.52009985     0.03340
N2339       N  0.35699691  0.72523713  0.54865885     0.65850
H2340       H  0.29935015  0.72956991  0.53464035     0.14750
H2341       H  0.36642370  0.75816053  0.44870674     0.14460
N2342       N  0.30839344  0.76040054  0.43362294     0.73560
O2343       O  0.35072876  0.73961601  0.57280819    -0.39900
O2344       O  0.36662041  0.69812962  0.55058227    -0.39840
O2345       O  0.28603132  0.77824534  0.43124206    -0.40540
O2346       O  0.32337237  0.75378841  0.40994407    -0.40610
C2347       C  0.48080932  0.72381887  0.33929992    -0.12890
C2348       C  0.50461539  0.73890736  0.35449425     0.04120
C2349       C  0.52734954  0.75351267  0.33691370    -0.08180
C2350       C  0.52577392  0.75234010  0.30482070    -0.08920
C2351       C  0.50315127  0.73513092  0.28986421    -0.03470
C2352       C  0.48003310  0.72120239  0.30753238     0.03340
N2353       N  0.45593269  0.70363913  0.29381025     0.65850
H2354       H  0.46314225  0.71252892  0.35231463     0.14750
H2355       H  0.54364334  0.76303230  0.29158834     0.14460
N2356       N  0.55256468  0.76882262  0.35098308     0.73560
O2357       O  0.44603791  0.67997740  0.30692872    -0.39900
O2358       O  0.44200426  0.71356374  0.27066398    -0.39840
O2359       O  0.57258773  0.75341433  0.36480196    -0.40540
O2360       O  0.55859398  0.79596462  0.34343837    -0.40610
C2361       C  0.66161800  0.47011535  0.23893847    -0.12890
C2362       C  0.64524787  0.49581161  0.24901649     0.04120
C2363       C  0.66179530  0.52165891  0.25929698    -0.08180
C2364       C  0.69332779  0.51979771  0.26267176    -0.08920
C2365       C  0.70981018  0.49434913  0.25278786    -0.03470
C2366       C  0.69377454  0.46904292  0.24027843     0.03340
N2367       N  0.70905998  0.44156559  0.23060159     0.65850
H2368       H  0.64917578  0.45015170  0.23131027     0.14750
H2369       H  0.70528480  0.53878995  0.27309172     0.14460
N2370       N  0.64712748  0.54982068  0.26726408     0.73560
O2371       O  0.69719746  0.42482999  0.21034104    -0.39900
O2372       O  0.73286393  0.43235455  0.24390399    -0.39840
O2373       O  0.65341709  0.56273912  0.29225463    -0.40540
O2374       O  0.63302302  0.56466707  0.24698478    -0.40610
C2375       C  0.34935186  0.46061067  0.25093815    -0.12890
C2376       C  0.36396628  0.48878423  0.24623327     0.04120
C2377       C  0.34582466  0.51474955  0.24012159    -0.08180
C2378       C  0.31396093  0.51220344  0.24025792    -0.08920
C2379       C  0.29955356  0.48469874  0.24835174    -0.03470
C2380       C  0.31757951  0.45835181  0.25291441     0.03340
N2381       N  0.30432468  0.42940073  0.26068501     0.65850
H2382       H  0.36275621  0.44025861  0.25506678     0.14750
H2383       H  0.30038417  0.53261863  0.23711071     0.14460
N2384       N  0.35906431  0.54431392  0.23624600     0.73560
O2385       O  0.31804869  0.41163025  0.27876003    -0.39900
O2386       O  0.28224890  0.41916746  0.24539393    -0.39840
O2387       O  0.35848782  0.55670468  0.21026875    -0.40540
O2388       O  0.36414819  0.56062359  0.25946267    -0.40610
C2389       C  0.52744413  0.33521566  0.23760273    -0.12890
C2390       C  0.50196514  0.34940888  0.25046200     0.04120
C2391       C  0.47840619  0.33090242  0.26238505    -0.08180
C2392       C  0.48165329  0.29912370  0.26239902    -0.08920
C2393       C  0.50832487  0.28479353  0.25200862    -0.03470
C2394       C  0.53132374  0.30333640  0.23840059     0.03340
N2395       N  0.55919640  0.29123304  0.22622945     0.65850
H2396       H  0.54552174  0.34932421  0.22842889     0.14750
H2397       H  0.46373053  0.28561506  0.27259918     0.14460
N2398       N  0.45244967  0.34370885  0.27748740     0.73560
O2399       O  0.57182696  0.30413415  0.20379812    -0.39900
O2400       O  0.57305844  0.26983148  0.23943149    -0.39840
O2401       O  0.42603204  0.33603567  0.26904446    -0.40540
O2402       O  0.45585197  0.35637768  0.30315569    -0.40610
C2403       C  0.48668901  0.67925181  0.23237098    -0.12890
C2404       C  0.50949000  0.69449494  0.24912778     0.04120
C2405       C  0.53338298  0.67721402  0.26221024    -0.08180
C2406       C  0.53296139  0.64545093  0.25964872    -0.08920
C2407       C  0.50882615  0.62997426  0.24536541    -0.03470
C2408       C  0.48578322  0.64710790  0.23063358     0.03340
N2409       N  0.46123693  0.63243389  0.21446198     0.65850
H2410       H  0.46860244  0.69240510  0.22190091     0.14750
H2411       H  0.55094571  0.63267234  0.27079029     0.14460
N2412       N  0.55761227  0.69126381  0.27933256     0.73560
O2413       O  0.43593472  0.64580692  0.21130022    -0.39900
O2414       O  0.46553099  0.60736078  0.20089595    -0.39840
O2415       O  0.56818831  0.67826718  0.30278672    -0.40540
O2416       O  0.57091971  0.71466344  0.26922173    -0.40610
C2417       C  0.49275417  0.22591686  0.68825865    -0.12890
C2418       C  0.50986313  0.24888030  0.70326507     0.04120
C2419       C  0.52802725  0.26804648  0.68440239    -0.08180
C2420       C  0.52729412  0.26492695  0.65276229    -0.08920
C2421       C  0.50914573  0.24309217  0.63818796    -0.03470
C2422       C  0.49242742  0.22222285  0.65618680     0.03340
N2423       N  0.47556484  0.19712993  0.64283061     0.65850
H2424       H  0.47812953  0.21107180  0.70117340     0.14750
H2425       H  0.54040577  0.28103936  0.63925131     0.14460
N2426       N  0.54690609  0.29178708  0.69639968     0.73560
O2427       O  0.46353872  0.17714924  0.65975747    -0.39900
O2428       O  0.47465897  0.19310956  0.61433668    -0.39840
O2429       O  0.57480060  0.28622587  0.70058583    -0.40540
O2430       O  0.53880110  0.31916766  0.69237994    -0.40610
C2431       C  0.48338727  0.23633196  0.30679537    -0.12890
C2432       C  0.51127173  0.24336133  0.29253954     0.04120
C2433       C  0.53719025  0.24718752  0.31121748    -0.08180
C2434       C  0.53475802  0.24477097  0.34289881    -0.08920
C2435       C  0.50661352  0.23993413  0.35727529    -0.03470
C2436       C  0.48080807  0.23390231  0.33880504     0.03340
N2437       N  0.45198480  0.22564062  0.35199671     0.65850
H2438       H  0.46307162  0.23416584  0.29302997     0.14750
H2439       H  0.55497518  0.24931889  0.35637166     0.14460
N2440       N  0.56579243  0.25643670  0.29903175     0.73560
O2441       O  0.42742543  0.23239751  0.33855291    -0.39900
O2442       O  0.45107813  0.20788633  0.37467093    -0.39840
O2443       O  0.57302812  0.28429657  0.30060920    -0.40540
O2444       O  0.58661562  0.23676422  0.29631043    -0.40610
C2445       C  0.34680412  0.23138071  0.51793662    -0.12890
C2446       C  0.36212429  0.24645632  0.49430039     0.04120
C2447       C  0.34482228  0.26205655  0.47189284    -0.08180
C2448       C  0.31310940  0.26221506  0.47375141    -0.08920
C2449       C  0.29758278  0.24811920  0.49786375    -0.03470
C2450       C  0.31485267  0.23256033  0.52049199     0.03340
N2451       N  0.30113788  0.22021230  0.54745319     0.65850
H2452       H  0.35996447  0.22026203  0.53568779     0.14750
H2453       H  0.30039922  0.27517289  0.45693542     0.14460
N2454       N  0.35881171  0.28069947  0.44897385     0.73560
O2455       O  0.31113732  0.19559584  0.55865147    -0.39900
O2456       O  0.28350849  0.23650008  0.56325536    -0.39840
O2457       O  0.35110996  0.27747850  0.42139574    -0.40540
O2458       O  0.37299325  0.30452376  0.45685173    -0.40610
C2459       C  0.69265235  0.25325426  0.47058884    -0.12890
C2460       C  0.70779077  0.24192859  0.49635559     0.04120
C2461       C  0.69037400  0.22861893  0.52016749    -0.08180
C2462       C  0.65839015  0.22802727  0.51766317    -0.08920
C2463       C  0.64335131  0.24123578  0.49264332    -0.03470
C2464       C  0.66099046  0.25318597  0.46840875     0.03340
N2465       N  0.64746488  0.26862353  0.44297213     0.65850
H2466       H  0.70555397  0.26449966  0.45277534     0.14750
H2467       H  0.64505164  0.21922507  0.53648901     0.14460
N2468       N  0.70407327  0.21810193  0.54803221     0.73560
O2469       O  0.63724186  0.29534876  0.44648730    -0.39900
O2470       O  0.65236909  0.25889829  0.41631591    -0.39840
O2471       O  0.72386431  0.23409453  0.56147188    -0.40540
O2472       O  0.69313346  0.19519936  0.56165145    -0.40610
loop_ 
_geom_bond_atom_site_label_1 
_geom_bond_atom_site_label_2 
_geom_bond_distance 
_geom_bond_site_symmetry_2 
_ccdc_geom_bond_type 
N1            N2   1.319       .  A
N1            N7   1.313       .  A
N1          Mn30   2.193       .  S
N2            C9   1.351       .  A
N3            N5   1.317       .  A
N3            N4   1.323       .  A
N3          Mn19   2.212       .  S
N4           C10   1.355       .  A
N5            N6   1.317       .  A
N5          Mn30   2.189       .  S
N6           C10   1.348       .  A
N7            N8   1.319       .  A
N7          Mn19   2.179       .  S
N8            C9   1.350       .  A
C9          C144   1.457       .  S
C10        C2463   1.484       .  S
N11          N17   1.321       .  A
N11          N12   1.324       .  A
N11         Mn41   2.226       .  S
N12          C20   1.356       .  A
N13          N14   1.321       .  A
N13          N15   1.314       .  A
N13         Mn19   2.199       .  S
N14          C21   1.352       .  A
N15          N16   1.320       .  A
N15         Mn41   2.196       .  S
N16          C21   1.352       .  A
N17          N18   1.317       .  A
N17         Mn19   2.196       .  S
N18          C20   1.349       .  A
Mn19        Cl43   2.537       .  S
C20        C2421   1.482       .  S
C21         C201   1.465       .  S
N22          N23   1.318       .  A
N22          N28   1.317       .  A
N22         Mn30   2.197       .  S
N23          C31   1.352       .  A
N24          N26   1.313       .  A
N24          N25   1.319       .  A
N24         Mn42   2.184       .  S
N25          C32   1.351       .  A
N26          N27   1.318       .  A
N26         Mn30   2.184       .  S
N27          C32   1.350       .  A
N28          N29   1.324       .  A
N28         Mn42   2.215       .  S
N29          C31   1.357       .  A
Mn30        Cl43   2.530       .  S
C31        C2435   1.493       .  S
C32          C66   1.454       .  S
N33          N34   1.321       .  A
N33          N39   1.315       .  A
N33         Mn41   2.197       .  S
N34          C44   1.352       .  A
N35          N36   1.318       .  A
N35          N37   1.322       .  A
N35         Mn42   2.199       .  S
N36          C45   1.348       .  A
N37          N38   1.323       .  A
N37         Mn41   2.220       .  S
N38          C45   1.353       .  A
N39          N40   1.319       .  A
N39         Mn42   2.199       .  S
N40          C44   1.351       .  A
Mn41        Cl43   2.542       .  S
Mn42        Cl43   2.537       .  S
C44         C234   1.463       .  S
C45        C2446   1.483       .  S
N46          N47   1.320       .  A
N46          N52   1.314       .  A
N46         Mn75   2.197       .  S
N47          C54   1.352       .  A
N48          N50   1.318       .  A
N48          N49   1.326       .  A
N48         Mn64   2.220       .  S
N49          C55   1.358       .  A
N50          N51   1.315       .  A
N50         Mn75   2.192       .  S
N51          C55   1.347       .  A
N52          N53   1.320       .  A
N52         Mn64   2.192       .  S
N53          C54   1.351       .  A
C54         C156   1.463       .  S
C55        C2362   1.492       .  S
N56          N62   1.321       .  A
N56          N57   1.319       .  A
N56         Mn86   2.197       .  S
N57          C65   1.348       .  A
N58          N59   1.318       .  A
N58          N60   1.314       .  A
N58         Mn64   2.187       .  S
N59          C66   1.350       .  A
N60          N61   1.319       .  A
N60         Mn86   2.187       .  S
N61          C66   1.350       .  A
N62          N63   1.322       .  A
N62         Mn64   2.214       .  S
N63          C65   1.354       .  A
Mn64        Cl88   2.556       .  S
C65        C2390   1.485       .  S
N67          N68   1.316       .  A
N67          N73   1.318       .  A
N67         Mn75   2.196       .  S
N68          C76   1.350       .  A
N69          N71   1.314       .  A
N69          N70   1.319       .  A
N69         Mn87   2.187       .  S
N70          C77   1.350       .  A
N71          N72   1.319       .  A
N71         Mn75   2.191       .  S
N72          C77   1.350       .  A
N73          N74   1.324       .  A
N73         Mn87   2.212       .  S
N74          C76   1.356       .  A
Mn75        Cl88   2.511       .  S
C76        C2407   1.483       .  S
C77          C99   1.457       .  S
N78          N79   1.320       .  A
N78          N84   1.313       .  A
N78         Mn86   2.189       .  S
N79          C89   1.350       .  A
N80          N81   1.323       .  A
N80          N82   1.318       .  A
N80         Mn87   2.209       .  S
N81          C90   1.354       .  A
N82          N83   1.317       .  A
N82         Mn86   2.200       .  S
N83          C90   1.351       .  A
N84          N85   1.319       .  A
N84         Mn87   2.192       .  S
N85          C89   1.351       .  A
Mn86        Cl88   2.518       .  S
Mn87        Cl88   2.558       .  S
C89         C257   1.459       .  S
C90        C2376   1.489       .  S
N91          N92   1.318       .  A
N91          N97   1.313       .  A
N91        Mn120   2.181       .  S
N92          C99   1.349       .  A
N93          N95   1.319       .  A
N93          N94   1.319       .  A
N93        Mn109   2.210       .  S
N94         C100   1.353       .  A
N95          N96   1.323       .  A
N95        Mn120   2.208       .  S
N96         C100   1.352       .  A
N97          N98   1.320       .  A
N97        Mn109   2.193       .  S
N98          C99   1.351       .  A
C100       C2348   1.487       .  S
N101        N107   1.320       .  A
N101        N102   1.322       .  A
N101       Mn131   2.212       .  S
N102        C110   1.352       .  A
N103        N104   1.319       .  A
N103        N105   1.314       .  A
N103       Mn109   2.187       .  S
N104        C111   1.350       .  A
N105        N106   1.320       .  A
N105       Mn131   2.201       .  S
N106        C111   1.353       .  A
N107        N108   1.321       .  A
N107       Mn109   2.207       .  S
N108        C110   1.352       .  A
Mn109      Cl133   2.530       .  S
C110       C2337   1.492       .  S
C111        C269   1.460       .  S
N112        N113   1.319       .  A
N112        N118   1.318       .  A
N112       Mn120   2.201       .  S
N113        C121   1.352       .  A
N114        N116   1.314       .  A
N114        N115   1.318       .  A
N114       Mn132   2.187       .  S
N115        C122   1.350       .  A
N116        N117   1.319       .  A
N116       Mn120   2.187       .  S
N117        C122   1.350       .  A
N118        N119   1.322       .  A
N118       Mn132   2.211       .  S
N119        C121   1.354       .  A
Mn120      Cl133   2.544       .  S
C121       C2306   1.493       .  S
C122        C179   1.455       .  S
N123        N124   1.320       .  A
N123        N129   1.314       .  A
N123       Mn131   2.191       .  S
N124        C134   1.351       .  A
N125        N126   1.317       .  A
N125        N127   1.320       .  A
N125       Mn132   2.200       .  S
N126        C135   1.350       .  A
N127        N128   1.324       .  A
N127       Mn131   2.221       .  S
N128        C135   1.356       .  A
N129        N130   1.321       .  A
N129       Mn132   2.202       .  S
N130        C134   1.352       .  A
Mn131      Cl133   2.548       .  S
Mn132      Cl133   2.529       .  S
C134        C212   1.464       .  S
C135       C2320   1.484       .  S
N136        N137   1.320       .  A
N136        N142   1.313       .  A
N136       Mn165   2.197       .  S
N137        C144   1.352       .  A
N138        N140   1.320       .  A
N138        N139   1.322       .  A
N138       Mn154   2.212       .  S
N139        C145   1.352       .  A
N140        N141   1.319       .  A
N140       Mn165   2.196       .  S
N141        C145   1.349       .  A
N142        N143   1.318       .  A
N142       Mn154   2.179       .  S
N143        C144   1.349       .  A
C145       C2281   1.479       .  S
N146        N152   1.321       .  A
N146        N147   1.323       .  A
N146       Mn176   2.219       .  S
N147        C155   1.353       .  A
N148        N149   1.321       .  A
N148        N150   1.313       .  A
N148       Mn154   2.199       .  S
N149        C156   1.352       .  A
N150        N151   1.320       .  A
N150       Mn176   2.190       .  S
N151        C156   1.351       .  A
N152        N153   1.319       .  A
N152       Mn154   2.201       .  S
N153        C155   1.349       .  A
Mn154      Cl178   2.534       .  S
C155       C2292   1.484       .  S
N157        N158   1.323       .  A
N157        N163   1.319       .  A
N157       Mn165   2.210       .  S
N158        C166   1.354       .  A
N159        N161   1.313       .  A
N159        N160   1.320       .  A
N159       Mn177   2.192       .  S
N160        C167   1.352       .  A
N161        N162   1.318       .  A
N161       Mn165   2.180       .  S
N162        C167   1.349       .  A
N163        N164   1.319       .  A
N163       Mn177   2.207       .  S
N164        C166   1.352       .  A
Mn165      Cl178   2.536       .  S
C166       C2267   1.493       .  S
C167        C224   1.456       .  S
N168        N169   1.319       .  A
N168        N174   1.314       .  A
N168       Mn176   2.192       .  S
N169        C179   1.351       .  A
N170        N171   1.320       .  A
N170        N172   1.320       .  A
N170       Mn177   2.208       .  S
N171        C180   1.351       .  A
N172        N173   1.322       .  A
N172       Mn176   2.214       .  S
N173        C180   1.354       .  A
N174        N175   1.318       .  A
N174       Mn177   2.183       .  S
N175        C179   1.349       .  A
Mn176      Cl178   2.543       .  S
Mn177      Cl178   2.534       .  S
C180       C2250   1.494       .  S
N181        N182   1.318       .  A
N181        N187   1.313       .  A
N181       Mn210   2.182       .  S
N182        C189   1.350       .  A
N183        N185   1.318       .  A
N183        N184   1.317       .  A
N183       Mn199   2.189       .  S
N184        C190   1.347       .  A
N185        N186   1.324       .  A
N185       Mn210   2.216       .  S
N186        C190   1.355       .  A
N187        N188   1.318       .  A
N187       Mn199   2.187       .  S
N188        C189   1.350       .  A
C189        C246   1.453       .  S
C190       C2225   1.483       .  S
N191        N197   1.317       .  A
N191        N192   1.325       .  A
N191       Mn221   2.218       .  S
N192        C200   1.358       .  A
N193        N194   1.320       .  A
N193        N195   1.312       .  A
N193       Mn199   2.191       .  S
N194        C201   1.351       .  A
N195        N196   1.321       .  A
N195       Mn221   2.196       .  S
N196        C201   1.353       .  A
N197        N198   1.315       .  A
N197       Mn199   2.188       .  S
N198        C200   1.347       .  A
Mn199      Cl223   2.526       .  S
C200       C2239   1.488       .  S
N202        N203   1.319       .  A
N202        N208   1.322       .  A
N202       Mn210   2.207       .  S
N203        C211   1.350       .  A
N204        N206   1.314       .  A
N204        N205   1.320       .  A
N204       Mn222   2.193       .  S
N205        C212   1.351       .  A
N206        N207   1.321       .  A
N206       Mn210   2.200       .  S
N207        C212   1.352       .  A
N208        N209   1.323       .  A
N208       Mn222   2.220       .  S
N209        C211   1.354       .  A
Mn210      Cl223   2.541       .  S
C211       C2194   1.486       .  S
N213        N214   1.318       .  A
N213        N219   1.315       .  A
N213       Mn221   2.194       .  S
N214        C224   1.350       .  A
N215        N216   1.324       .  A
N215        N217   1.321       .  A
N215       Mn222   2.215       .  S
N216        C225   1.354       .  A
N217        N218   1.318       .  A
N217       Mn221   2.208       .  S
N218        C225   1.351       .  A
N219        N220   1.319       .  A
N219       Mn222   2.189       .  S
N220        C224   1.350       .  A
Mn221      Cl223   2.541       .  S
Mn222      Cl223   2.540       .  S
C225       C2208   1.492       .  S
N226        N227   1.319       .  A
N226        N232   1.314       .  A
N226       Mn255   2.187       .  S
N227        C234   1.350       .  A
N228        N230   1.321       .  A
N228        N229   1.318       .  A
N228       Mn244   2.204       .  S
N229        C235   1.349       .  A
N230        N231   1.324       .  A
N230       Mn255   2.221       .  S
N231        C235   1.354       .  A
N232        N233   1.322       .  A
N232       Mn244   2.205       .  S
N233        C234   1.353       .  A
C235       C2180   1.486       .  S
N236        N242   1.320       .  A
N236        N237   1.319       .  A
N236       Mn266   2.197       .  S
N237        C245   1.349       .  A
N238        N239   1.318       .  A
N238        N240   1.313       .  A
N238       Mn244   2.180       .  S
N239        C246   1.349       .  A
N240        N241   1.319       .  A
N240       Mn266   2.190       .  S
N241        C246   1.350       .  A
N242        N243   1.322       .  A
N242       Mn244   2.216       .  S
N243        C245   1.353       .  A
Mn244      Cl268   2.529       .  S
C245       C2138   1.484       .  S
N247        N248   1.323       .  A
N247        N253   1.320       .  A
N247       Mn255   2.212       .  S
N248        C256   1.353       .  A
N249        N251   1.314       .  A
N249        N250   1.318       .  A
N249       Mn267   2.183       .  S
N250        C257   1.349       .  A
N251        N252   1.321       .  A
N251       Mn255   2.199       .  S
N252        C257   1.353       .  A
N253        N254   1.319       .  A
N253       Mn267   2.209       .  S
N254        C256   1.351       .  A
Mn255      Cl268   2.551       .  S
C256       C2152   1.484       .  S
N258        N259   1.318       .  A
N258        N264   1.313       .  A
N258       Mn266   2.179       .  S
N259        C269   1.349       .  A
N260        N261   1.317       .  A
N260        N262   1.318       .  A
N260       Mn267   2.197       .  S
N261        C270   1.351       .  A
N262        N263   1.323       .  A
N262       Mn266   2.207       .  S
N263        C270   1.353       .  A
N264        N265   1.321       .  A
N264       Mn267   2.203       .  S
N265        C269   1.353       .  A
Mn266      Cl268   2.543       .  S
Mn267      Cl268   2.521       .  S
C270       C2166   1.488       .  S
N271        N272   1.320       .  A
N271        N277   1.314   1_554  A
N271       Mn300   2.201       .  S
N272        C279   1.352   1_554  A
N273        N275   1.318   1_556  A
N273        N274   1.321       .  A
N273       Mn289   2.216       .  S
N274        C280   1.355   1_556  A
N275        N276   1.319       .  A
N275       Mn300   2.200       .  S
N276        C280   1.351       .  A
N277        N278   1.320       .  A
N277       Mn289   2.185       .  S
N278        C279   1.350       .  A
C279        C504   1.461       .  S
C280       C2096   1.489       .  S
N281        N287   1.320       .  A
N281        N282   1.323       .  A
N281       Mn311   2.219       .  S
N282        C290   1.354       .  A
N283        N284   1.321       .  A
N283        N285   1.314       .  A
N283       Mn289   2.205       .  S
N284        C291   1.353       .  A
N285        N286   1.318       .  A
N285       Mn311   2.181       .  S
N286        C291   1.348       .  A
N287        N288   1.319       .  A
N287       Mn289   2.199       .  S
N288        C290   1.349       .  A
Mn289      Cl313   2.536       .  S
C290       C2124   1.487       .  S
C291        C336   1.459       .  S
N292        N293   1.322       .  A
N292        N298   1.317       .  A
N292       Mn300   2.211       .  S
N293        C301   1.355       .  A
N294        N296   1.314       .  A
N294        N295   1.318       .  A
N294       Mn312   2.182       .  S
N295        C302   1.349       .  A
N296        N297   1.318       .  A
N296       Mn300   2.187       .  S
N297        C302   1.350       .  A
N298        N299   1.319       .  A
N298       Mn312   2.199       .  S
N299        C301   1.351       .  A
Mn300      Cl313   2.539   1_554  S
C301       C2110   1.492       .  S
C302        C426   1.452       .  S
N303        N304   1.321       .  A
N303        N309   1.313   1_556  A
N303       Mn311   2.195       .  S
N304        C314   1.352       .  A
N305        N306   1.320       .  A
N305        N307   1.319   1_554  A
N305       Mn312   2.199       .  S
N306        C315   1.352   1_554  A
N307        N308   1.320       .  A
N307       Mn311   2.210       .  S
N308        C315   1.353       .  A
N309        N310   1.319       .  A
N309       Mn312   2.189       .  S
N310        C314   1.350   1_554  A
Mn311      Cl313   2.542       .  S
Mn312      Cl313   2.534   1_554  S
C314        C459   1.461       .  S
C315       C2085   1.489       .  S
N316        N317   1.321       .  A
N316        N322   1.312   1_455  A
N316       Mn345   2.192       .  S
N317        C324   1.352       .  A
N318        N320   1.318   1_655  A
N318        N319   1.324       .  A
N318       Mn334   2.221       .  S
N319        C325   1.356   1_655  A
N320        N321   1.321       .  A
N320       Mn345   2.205       .  S
N321        C325   1.353       .  A
N322        N323   1.317       .  A
N322       Mn334   2.179       .  S
N323        C324   1.349   1_655  A
C324        C471   1.456       .  S
C325       C2040   1.499       .  S
N326        N332   1.321       .  A
N326        N327   1.324       .  A
N326       Mn356   2.220       .  S
N327        C335   1.353       .  A
N328        N329   1.320       .  A
N328        N330   1.314       .  A
N328       Mn334   2.204       .  S
N329        C336   1.352       .  A
N330        N331   1.319       .  A
N330       Mn356   2.178       .  S
N331        C336   1.349       .  A
N332        N333   1.318       .  A
N332       Mn334   2.202       .  S
N333        C335   1.349       .  A
Mn334      Cl358   2.539   1_655  S
C335       C2071   1.484       .  S
N337        N338   1.317       .  A
N337        N343   1.320       .  A
N337       Mn345   2.203       .  S
N338        C346   1.351       .  A
N339        N341   1.314       .  A
N339        N340   1.320       .  A
N339       Mn357   2.195       .  S
N340        C347   1.352       .  A
N341        N342   1.318       .  A
N341       Mn345   2.182       .  S
N342        C347   1.348       .  A
N343        N344   1.323       .  A
N343       Mn357   2.212       .  S
N344        C346   1.353       .  A
Mn345      Cl358   2.532       .  S
C346       C2026   1.487       .  S
C347        C381   1.456       .  S
N348        N349   1.322       .  A
N348        N354   1.314   1_655  A
N348       Mn356   2.207       .  S
N349        C359   1.353   1_655  A
N350        N351   1.322       .  A
N350        N352   1.321   1_455  A
N350       Mn357   2.216       .  S
N351        C360   1.353       .  A
N352        N353   1.319       .  A
N352       Mn356   2.207       .  S
N353        C360   1.350   1_655  A
N354        N355   1.321       .  A
N354       Mn357   2.192       .  S
N355        C359   1.351       .  A
Mn356      Cl358   2.535   1_655  S
Mn357      Cl358   2.547       .  S
C359        C527   1.467       .  S
C360       C2057   1.484       .  S
N361        N362   1.321       .  A
N361        N367   1.314   1_554  A
N361       Mn390   2.194       .  S
N362        C369   1.352       .  A
N363        N365   1.321   1_556  A
N363        N364   1.318       .  A
N363       Mn379   2.203       .  S
N364        C370   1.350       .  A
N365        N366   1.324       .  A
N365       Mn390   2.219       .  S
N366        C370   1.355   1_554  A
N367        N368   1.318       .  A
N367       Mn379   2.191       .  S
N368        C369   1.350   1_556  A
C369        C494   1.460       .  S
C370       C2012   1.483       .  S
N371        N377   1.317       .  A
N371        N372   1.318       .  A
N371       Mn401   2.201       .  S
N372        C380   1.352       .  A
N373        N374   1.319       .  A
N373        N375   1.313       .  A
N373       Mn379   2.192       .  S
N374        C381   1.351       .  A
N375        N376   1.319       .  A
N375       Mn401   2.182       .  S
N376        C381   1.349       .  A
N377        N378   1.323       .  A
N377       Mn379   2.205       .  S
N378        C380   1.353       .  A
Mn379      Cl403   2.536       .  S
C380       C1970   1.488       .  S
N382        N383   1.321       .  A
N382        N388   1.320       .  A
N382       Mn390   2.215       .  S
N383        C391   1.354       .  A
N384        N386   1.315       .  A
N384        N385   1.320       .  A
N384       Mn402   2.200       .  S
N385        C392   1.352       .  A
N386        N387   1.320       .  A
N386       Mn390   2.193       .  S
N387        C392   1.350       .  A
N388        N389   1.319       .  A
N388       Mn402   2.203       .  S
N389        C391   1.352       .  A
Mn390      Cl403   2.541   1_554  S
C391       C1984   1.489       .  S
C392        C437   1.461       .  S
N393        N394   1.319       .  A
N393        N399   1.313   1_556  A
N393       Mn401   2.195       .  S
N394        C404   1.351   1_556  A
N395        N396   1.324       .  A
N395        N397   1.317   1_554  A
N395       Mn402   2.217       .  S
N396        C405   1.357   1_554  A
N397        N398   1.316       .  A
N397       Mn401   2.192       .  S
N398        C405   1.350       .  A
N399        N400   1.320       .  A
N399       Mn402   2.186       .  S
N400        C404   1.351       .  A
Mn401      Cl403   2.529       .  S
Mn402      Cl403   2.544   1_554  S
C404        C539   1.460       .  S
C405       C1998   1.489       .  S
N406        N407   1.319       .  A
N406        N412   1.313   1_455  A
N406       Mn435   2.194       .  S
N407        C414   1.352       .  A
N408        N410   1.320   1_655  A
N408        N409   1.320       .  A
N408       Mn424   2.203       .  S
N409        C415   1.352   1_655  A
N410        N411   1.322       .  A
N410       Mn435   2.214       .  S
N411        C415   1.354       .  A
N412        N413   1.320       .  A
N412       Mn424   2.190       .  S
N413        C414   1.350   1_655  A
C414        C516   1.461       .  S
C415       C1942   1.491       .  S
N416        N422   1.319       .  A
N416        N417   1.324       .  A
N416       Mn446   2.206       .  S
N417        C425   1.352       .  A
N418        N419   1.318       .  A
N418        N420   1.313       .  A
N418       Mn424   2.184       .  S
N419        C426   1.349       .  A
N420        N421   1.318       .  A
N420       Mn446   2.184       .  S
N421        C426   1.350       .  A
N422        N423   1.318       .  A
N422       Mn424   2.206       .  S
N423        C425   1.352       .  A
Mn424      Cl448   2.524   1_655  S
C425       C1917   1.491       .  S
N427        N428   1.324       .  A
N427        N433   1.321       .  A
N427       Mn435   2.213       .  S
N428        C436   1.353       .  A
N429        N431   1.314       .  A
N429        N430   1.320       .  A
N429       Mn447   2.199       .  S
N430        C437   1.351       .  A
N431        N432   1.320       .  A
N431       Mn435   2.191       .  S
N432        C437   1.351       .  A
N433        N434   1.318       .  A
N433       Mn447   2.208       .  S
N434        C436   1.350       .  A
Mn435      Cl448   2.551       .  S
C436       C1928   1.485       .  S
N438        N439   1.319       .  A
N438        N444   1.313   1_655  A
N438       Mn446   2.185       .  S
N439        C449   1.350   1_655  A
N440        N441   1.320       .  A
N440        N442   1.319   1_455  A
N440       Mn447   2.210       .  S
N441        C450   1.353       .  A
N442        N443   1.322       .  A
N442       Mn446   2.207       .  S
N443        C450   1.354   1_655  A
N444        N445   1.320       .  A
N444       Mn447   2.196       .  S
N445        C449   1.352       .  A
Mn446      Cl448   2.550   1_655  S
Mn447      Cl448   2.524       .  S
C449        C482   1.459       .  S
C450       C1959   1.490       .  S
N451        N452   1.319       .  A
N451        N457   1.314   1_554  A
N451       Mn480   2.191       .  S
N452        C459   1.351   1_554  A
N453        N455   1.320   1_556  A
N453        N454   1.323       .  A
N453       Mn469   2.208       .  S
N454        C460   1.352       .  A
N455        N456   1.319       .  A
N455       Mn480   2.213       .  S
N456        C460   1.353   1_554  A
N457        N458   1.321       .  A
N457       Mn469   2.194       .  S
N458        C459   1.352       .  A
C460       C1858   1.493       .  S
N461        N467   1.320   1_455  A
N461        N462   1.317       .  A
N461       Mn491   2.206       .  S
N462        C470   1.352       .  A
N463        N464   1.316       .  A
N463        N465   1.314   1_655  A
N463       Mn469   2.179       .  S
N464        C471   1.348   1_655  A
N465        N466   1.321       .  A
N465       Mn491   2.198       .  S
N466        C471   1.352       .  A
N467        N468   1.325       .  A
N467       Mn469   2.215       .  S
N468        C470   1.354   1_655  A
Mn469      Cl493   2.550   1_655  S
C470       C1872   1.495       .  S
N472        N473   1.320       .  A
N472        N478   1.321   1_655  A
N472       Mn480   2.212       .  S
N473        C481   1.351       .  A
N474        N476   1.314   1_455  A
N474        N475   1.319       .  A
N474       Mn492   2.184       .  S
N475        C482   1.350       .  A
N476        N477   1.320       .  A
N476       Mn480   2.199       .  S
N477        C482   1.352   1_655  A
N478        N479   1.323       .  A
N478       Mn492   2.212       .  S
N479        C481   1.352   1_455  A
Mn480      Cl493   2.527   1_654  S
C481       C1900   1.487       .  S
N483        N484   1.318       .  A
N483        N489   1.313   1_556  A
N483       Mn491   2.187       .  S
N484        C494   1.350   1_556  A
N485        N486   1.320       .  A
N485        N487   1.319   1_554  A
N485       Mn492   2.207       .  S
N486        C495   1.353   1_554  A
N487        N488   1.322       .  A
N487       Mn491   2.214       .  S
N488        C495   1.354       .  A
N489        N490   1.321       .  A
N489       Mn492   2.196       .  S
N490        C494   1.352       .  A
Mn491      Cl493   2.531       .  S
Mn492      Cl493   2.548   1_554  S
C495       C1886   1.489   1_556  S
N496        N497   1.321       .  A
N496        N502   1.314   1_556  A
N496       Mn525   2.205       .  S
N497        C504   1.353       .  A
N498        N500   1.320   1_554  A
N498        N499   1.323       .  A
N498       Mn514   2.225       .  S
N499        C505   1.356   1_554  A
N500        N501   1.320       .  A
N500       Mn525   2.208       .  S
N501        C505   1.351       .  A
N502        N503   1.319       .  A
N502       Mn514   2.182       .  S
N503        C504   1.349   1_554  A
C505       C1805   1.478       .  S
N506        N512   1.320   1_455  A
N506        N507   1.322       .  A
N506       Mn536   2.213       .  S
N507        C515   1.354       .  A
N508        N509   1.322       .  A
N508        N510   1.314   1_655  A
N508       Mn514   2.205       .  S
N509        C516   1.354   1_655  A
N510        N511   1.318       .  A
N510       Mn536   2.183       .  S
N511        C516   1.349       .  A
N512        N513   1.320       .  A
N512       Mn514   2.205       .  S
N513        C515   1.352   1_655  A
Mn514      Cl538   2.541   1_655  S
C515       C1844   1.493       .  S
N517        N518   1.323       .  A
N517        N523   1.319   1_655  A
N517       Mn525   2.214       .  S
N518        C526   1.355   1_655  A
N519        N521   1.314   1_455  A
N519        N520   1.322       .  A
N519       Mn537   2.207       .  S
N520        C527   1.353       .  A
N521        N522   1.321       .  A
N521       Mn525   2.193       .  S
N522        C527   1.351   1_655  A
N523        N524   1.317       .  A
N523       Mn537   2.198       .  S
N524        C526   1.351       .  A
Mn525      Cl538   2.542   1_656  S
C526       C1833   1.483       .  S
N528        N529   1.321       .  A
N528        N534   1.314   1_554  A
N528       Mn536   2.198       .  S
N529        C539   1.352       .  A
N530        N531   1.323       .  A
N530        N532   1.319   1_556  A
N530       Mn537   2.215       .  S
N531        C540   1.353   1_556  A
N532        N533   1.320       .  A
N532       Mn536   2.203       .  S
N533        C540   1.351       .  A
N534        N535   1.318       .  A
N534       Mn537   2.184       .  S
N535        C539   1.350   1_556  A
Mn536      Cl538   2.538       .  S
Mn537      Cl538   2.536   1_556  S
C540       C1819   1.484       .  S
N541        N542   1.318       .  A
N541        N547   1.314       .  A
N541       Mn570   2.182       .  S
N542        C549   1.349       .  A
N543        N545   1.321       .  A
N543        N544   1.319       .  A
N543       Mn559   2.209       .  S
N544        C550   1.350       .  A
N545        N546   1.323       .  A
N545       Mn570   2.213       .  S
N546        C550   1.353       .  A
N547        N548   1.319       .  A
N547       Mn559   2.194       .  S
N548        C549   1.351       .  A
C549        C606   1.455       .  S
C550       C1788   1.488       .  S
N551        N557   1.320   1_554  A
N551        N552   1.323       .  A
N551       Mn581   2.212       .  S
N552        C560   1.355   1_554  A
N553        N554   1.320       .  A
N553        N555   1.314   1_556  A
N553       Mn559   2.193       .  S
N554        C561   1.351       .  A
N555        N556   1.321       .  A
N555       Mn581   2.200       .  S
N556        C561   1.352   1_554  A
N557        N558   1.320       .  A
N557       Mn559   2.212       .  S
N558        C560   1.353       .  A
Mn559      Cl583   2.527       .  S
C560       C1763   1.495       .  S
C561        C786   1.464       .  S
N562        N563   1.323       .  A
N562        N568   1.318   1_556  A
N562       Mn570   2.216       .  S
N563        C571   1.357       .  A
N564        N566   1.313   1_554  A
N564        N565   1.319       .  A
N564       Mn582   2.189       .  S
N565        C572   1.351   1_554  A
N566        N567   1.321       .  A
N566       Mn570   2.199       .  S
N567        C572   1.353       .  A
N568        N569   1.319       .  A
N568       Mn582   2.199       .  S
N569        C571   1.351   1_554  A
Mn570      Cl583   2.551       .  S
C571       C1746   1.494       .  S
C572        C729   1.463       .  S
N573        N574   1.317       .  A
N573        N579   1.314       .  A
N573       Mn581   2.184       .  S
N574        C584   1.349       .  A
N575        N576   1.318       .  A
N575        N577   1.320       .  A
N575       Mn582   2.199       .  S
N576        C585   1.348       .  A
N577        N578   1.323       .  A
N577       Mn581   2.217       .  S
N578        C585   1.355       .  A
N579        N580   1.319       .  A
N579       Mn582   2.188       .  S
N580        C584   1.350       .  A
Mn581      Cl583   2.550   1_554  S
Mn582      Cl583   2.526   1_554  S
C584        C684   1.454       .  S
C585       C1774   1.487       .  S
N586        N587   1.318       .  A
N586        N592   1.313   1_545  A
N586       Mn615   2.181       .  S
N587        C594   1.349   1_545  A
N588        N590   1.320   1_565  A
N588        N589   1.318       .  A
N588       Mn604   2.203       .  S
N589        C595   1.351       .  A
N590        N591   1.325       .  A
N590       Mn615   2.223       .  S
N591        C595   1.355   1_545  A
N592        N593   1.321       .  A
N592       Mn604   2.201       .  S
N593        C594   1.353       .  A
C594        C809   1.460       .  S
C595       C1690   1.487       .  S
N596        N602   1.319       .  A
N596        N597   1.319       .  A
N596       Mn626   2.202       .  S
N597        C605   1.351       .  A
N598        N599   1.318       .  A
N598        N600   1.314       .  A
N598       Mn604   2.183       .  S
N599        C606   1.349       .  A
N600        N601   1.319       .  A
N600       Mn626   2.191       .  S
N601        C606   1.351       .  A
N602        N603   1.322       .  A
N602       Mn604   2.213       .  S
N603        C605   1.355       .  A
Mn604      Cl628   2.531       .  S
C605       C1732   1.493       .  S
N607        N608   1.321       .  A
N607        N613   1.321       .  A
N607       Mn615   2.203       .  S
N608        C616   1.350       .  A
N609        N611   1.314       .  A
N609        N610   1.318       .  A
N609       Mn627   2.183       .  S
N610        C617   1.349       .  A
N611        N612   1.321       .  A
N611       Mn615   2.201       .  S
N612        C617   1.352       .  A
N613        N614   1.320       .  A
N613       Mn627   2.211       .  S
N614        C616   1.353       .  A
Mn615      Cl628   2.546   1_545  S
C616       C1718   1.492       .  S
C617        C639   1.459       .  S
N618        N619   1.319       .  A
N618        N624   1.313   1_565  A
N618       Mn626   2.185       .  S
N619        C629   1.350       .  A
N620        N621   1.319       .  A
N620        N622   1.319   1_545  A
N620       Mn627   2.208       .  S
N621        C630   1.353   1_545  A
N622        N623   1.322       .  A
N622       Mn626   2.211       .  S
N623        C630   1.354       .  A
N624        N625   1.321       .  A
N624       Mn627   2.199       .  S
N625        C629   1.352   1_545  A
Mn626      Cl628   2.546       .  S
Mn627      Cl628   2.530   1_545  S
C629        C752   1.462       .  S
C630       C1707   1.491       .  S
N631        N632   1.320       .  A
N631        N637   1.314       .  A
N631       Mn660   2.187       .  S
N632        C639   1.350       .  A
N633        N635   1.321       .  A
N633        N634   1.323       .  A
N633       Mn649   2.216       .  S
N634        C640   1.354       .  A
N635        N636   1.320       .  A
N635       Mn660   2.211       .  S
N636        C640   1.352       .  A
N637        N638   1.319       .  A
N637       Mn649   2.196       .  S
N638        C639   1.351       .  A
C640       C1662   1.495       .  S
N641        N647   1.320   1_554  A
N641        N642   1.319       .  A
N641       Mn671   2.212       .  S
N642        C650   1.352   1_554  A
N643        N644   1.319       .  A
N643        N645   1.314   1_556  A
N643       Mn649   2.194       .  S
N644        C651   1.351       .  A
N645        N646   1.316       .  A
N645       Mn671   2.177       .  S
N646        C651   1.348   1_554  A
N647        N648   1.324       .  A
N647       Mn649   2.217       .  S
N648        C650   1.355       .  A
Mn649      Cl673   2.539       .  S
C650       C1648   1.496       .  S
C651        C764   1.452       .  S
N652        N653   1.324       .  A
N652        N658   1.320   1_556  A
N652       Mn660   2.218       .  S
N653        C661   1.354   1_556  A
N654        N656   1.313   1_554  A
N654        N655   1.321       .  A
N654       Mn672   2.196       .  S
N655        C662   1.352       .  A
N656        N657   1.319       .  A
N656       Mn660   2.188       .  S
N657        C662   1.350   1_556  A
N658        N659   1.318       .  A
N658       Mn672   2.198       .  S
N659        C661   1.349       .  A
Mn660      Cl673   2.546       .  S
C661       C1634   1.482       .  S
C662        C797   1.461       .  S
N663        N664   1.321       .  A
N663        N669   1.313       .  A
N663       Mn671   2.197       .  S
N664        C674   1.353       .  A
N665        N666   1.316       .  A
N665        N667   1.318       .  A
N665       Mn672   2.200       .  S
N666        C675   1.350       .  A
N667        N668   1.324       .  A
N667       Mn671   2.208       .  S
N668        C675   1.356       .  A
N669        N670   1.318       .  A
N669       Mn672   2.183       .  S
N670        C674   1.349       .  A
Mn671      Cl673   2.546   1_554  S
Mn672      Cl673   2.523   1_554  S
C674        C719   1.460       .  S
C675       C1676   1.489       .  S
N676        N677   1.320       .  A
N676        N682   1.312       .  A
N676       Mn705   2.186       .  S
N677        C684   1.351       .  A
N678        N680   1.318       .  A
N678        N679   1.317       .  A
N678       Mn694   2.191       .  S
N679        C685   1.348       .  A
N680        N681   1.323       .  A
N680       Mn705   2.211       .  S
N681        C685   1.354       .  A
N682        N683   1.317       .  A
N682       Mn694   2.181       .  S
N683        C684   1.349       .  A
C685       C1592   1.481       .  S
N686        N692   1.318   1_545  A
N686        N687   1.323       .  A
N686       Mn716   2.218       .  S
N687        C695   1.355   1_545  A
N688        N689   1.319       .  A
N688        N690   1.313   1_565  A
N688       Mn694   2.186       .  S
N689        C696   1.350       .  A
N690        N691   1.319       .  A
N690       Mn716   2.188       .  S
N691        C696   1.351   1_545  A
N692        N693   1.318       .  A
N692       Mn694   2.185       .  S
N693        C695   1.347       .  A
Mn694      Cl718   2.522       .  S
C695       C1623   1.479       .  S
C696        C774   1.457       .  S
N697        N698   1.317       .  A
N697        N703   1.321   1_565  A
N697       Mn705   2.199       .  S
N698        C706   1.348       .  A
N699        N701   1.314   1_545  A
N699        N700   1.321       .  A
N699       Mn717   2.197       .  S
N700        C707   1.352   1_545  A
N701        N702   1.318       .  A
N701       Mn705   2.188       .  S
N702        C707   1.350       .  A
N703        N704   1.324       .  A
N703       Mn717   2.224       .  S
N704        C706   1.357   1_545  A
Mn705      Cl718   2.539       .  S
C706       C1606   1.491       .  S
C707        C741   1.459       .  S
N708        N709   1.319       .  A
N708        N714   1.315       .  A
N708       Mn716   2.200       .  S
N709        C719   1.351       .  A
N710        N711   1.325       .  A
N710        N712   1.321       .  A
N710       Mn717   2.224       .  S
N711        C720   1.356       .  A
N712        N713   1.317       .  A
N712       Mn716   2.201       .  S
N713        C720   1.350       .  A
N714        N715   1.320       .  A
N714       Mn717   2.189       .  S
N715        C719   1.351       .  A
Mn716      Cl718   2.535   1_545  S
Mn717      Cl718   2.546   1_545  S
C720       C1578   1.491       .  S
N721        N722   1.321       .  A
N721        N727   1.314   1_556  A
N721       Mn750   2.198       .  S
N722        C729   1.352       .  A
N723        N725   1.321   1_554  A
N723        N724   1.324       .  A
N723       Mn739   2.214       .  S
N724        C730   1.353   1_554  A
N725        N726   1.317       .  A
N725       Mn750   2.205       .  S
N726        C730   1.349       .  A
N727        N728   1.320       .  A
N727       Mn739   2.192       .  S
N728        C729   1.351   1_554  A
C730       C1522   1.486       .  S
N731        N737   1.321   1_545  A
N731        N732   1.318       .  A
N731       Mn761   2.205       .  S
N732        C740   1.349   1_545  A
N733        N734   1.318       .  A
N733        N735   1.314   1_565  A
N733       Mn739   2.186       .  S
N734        C741   1.350       .  A
N735        N736   1.320       .  A
N735       Mn761   2.195       .  S
N736        C741   1.351   1_545  A
N737        N738   1.324       .  A
N737       Mn739   2.217       .  S
N738        C740   1.354       .  A
Mn739      Cl763   2.551   1_554  S
C740       C1564   1.489       .  S
N742        N743   1.319       .  A
N742        N748   1.320   1_565  A
N742       Mn750   2.209       .  S
N743        C751   1.351       .  A
N744        N746   1.313   1_545  A
N744        N745   1.320       .  A
N744       Mn762   2.189       .  S
N745        C752   1.351   1_545  A
N746        N747   1.320       .  A
N746       Mn750   2.195       .  S
N747        C752   1.352       .  A
N748        N749   1.322       .  A
N748       Mn762   2.202       .  S
N749        C751   1.351   1_545  A
Mn750      Cl763   2.521       .  S
C751       C1550   1.484       .  S
N753        N754   1.317       .  A
N753        N759   1.313   1_554  A
N753       Mn761   2.183       .  S
N754        C764   1.350   1_554  A
N755        N756   1.321       .  A
N755        N757   1.319   1_556  A
N755       Mn762   2.210       .  S
N756        C765   1.354       .  A
N757        N758   1.321       .  A
N757       Mn761   2.208       .  S
N758        C765   1.353   1_554  A
N759        N760   1.318       .  A
N759       Mn762   2.181       .  S
N760        C764   1.349       .  A
Mn761      Cl763   2.525   1_544  S
Mn762      Cl763   2.548   1_545  S
C765       C1539   1.494       .  S
N766        N767   1.319       .  A
N766        N772   1.314   1_545  A
N766       Mn795   2.187       .  S
N767        C774   1.350   1_545  A
N768        N770   1.321   1_565  A
N768        N769   1.325       .  A
N768       Mn784   2.224       .  S
N769        C775   1.355       .  A
N770        N771   1.319       .  A
N770       Mn795   2.208       .  S
N771        C775   1.351   1_545  A
N772        N773   1.319       .  A
N772       Mn784   2.191       .  S
N773        C774   1.351       .  A
C775       C1508   1.488       .  S
N776        N782   1.323   1_556  A
N776        N777   1.319       .  A
N776       Mn806   2.213       .  S
N777        C785   1.350   1_556  A
N778        N779   1.320       .  A
N778        N780   1.315   1_554  A
N778       Mn784   2.193       .  S
N779        C786   1.351   1_554  A
N780        N781   1.321       .  A
N780       Mn806   2.203       .  S
N781        C786   1.352       .  A
N782        N783   1.325       .  A
N782       Mn784   2.219       .  S
N783        C785   1.353       .  A
Mn784      Cl808   2.547       .  S
C785       C1480   1.490   1_554  S
N787        N788   1.320       .  A
N787        N793   1.317   1_554  A
N787       Mn795   2.211       .  S
N788        C796   1.355       .  A
N789        N791   1.313   1_556  A
N789        N790   1.320       .  A
N789       Mn807   2.190       .  S
N790        C797   1.351   1_556  A
N791        N792   1.320       .  A
N791       Mn795   2.193       .  S
N792        C797   1.351       .  A
N793        N794   1.321       .  A
N793       Mn807   2.201       .  S
N794        C796   1.352   1_556  A
Mn795      Cl808   2.535   1_545  S
C796       C1466   1.493       .  S
N798        N799   1.321       .  A
N798        N804   1.313   1_565  A
N798       Mn806   2.191       .  S
N799        C809   1.351       .  A
N800        N801   1.317       .  A
N800        N802   1.319   1_545  A
N800       Mn807   2.196       .  S
N801        C810   1.348   1_545  A
N802        N803   1.325       .  A
N802       Mn806   2.224       .  S
N803        C810   1.358       .  A
N804        N805   1.319       .  A
N804       Mn807   2.190       .  S
N805        C809   1.351   1_545  A
Mn806      Cl808   2.537   1_556  S
Mn807      Cl808   2.541   1_546  S
C810       C1494   1.491   1_565  S
N811        N812   1.320       .  A
N811        N817   1.314   1_455  A
N811       Mn840   2.195       .  S
N812        C819   1.351       .  A
N813        N815   1.321   1_655  A
N813        N814   1.324       .  A
N813       Mn829   2.214       .  S
N814        C820   1.353   1_655  A
N815        N816   1.318       .  A
N815       Mn840   2.207       .  S
N816        C820   1.349       .  A
N817        N818   1.320       .  A
N817       Mn829   2.197       .  S
N818        C819   1.352   1_655  A
C819       C1044   1.463       .  S
C820       C1438   1.486       .  S
N821        N827   1.320       .  A
N821        N822   1.316       .  A
N821       Mn851   2.201       .  S
N822        C830   1.350       .  A
N823        N824   1.318       .  A
N823        N825   1.314       .  A
N823       Mn829   2.182       .  S
N824        C831   1.349       .  A
N825        N826   1.321       .  A
N825       Mn851   2.201       .  S
N826        C831   1.352       .  A
N827        N828   1.327       .  A
N827       Mn829   2.225       .  S
N828        C830   1.357       .  A
Mn829      Cl853   2.559   1_655  S
C830       C1452   1.490       .  S
C831        C876   1.459       .  S
N832        N833   1.320       .  A
N832        N838   1.320       .  A
N832       Mn840   2.202       .  S
N833        C841   1.350       .  A
N834        N836   1.314       .  A
N834        N835   1.320       .  A
N834       Mn852   2.187       .  S
N835        C842   1.350       .  A
N836        N837   1.319       .  A
N836       Mn840   2.197       .  S
N837        C842   1.352       .  A
N838        N839   1.322       .  A
N838       Mn852   2.212       .  S
N839        C841   1.353       .  A
Mn840      Cl853   2.519       .  S
C841       C1413   1.484       .  S
C842        C909   1.460       .  S
N843        N844   1.320       .  A
N843        N849   1.313   1_655  A
N843       Mn851   2.194       .  S
N844        C854   1.352   1_655  A
N845        N846   1.323       .  A
N845        N847   1.318   1_455  A
N845       Mn852   2.212       .  S
N846        C855   1.355       .  A
N847        N848   1.319       .  A
N847       Mn851   2.206       .  S
N848        C855   1.352   1_655  A
N849        N850   1.320       .  A
N849       Mn852   2.191       .  S
N850        C854   1.351       .  A
Mn851      Cl853   2.519   1_655  S
Mn852      Cl853   2.556       .  S
C854        C999   1.462       .  S
C855       C1427   1.491       .  S
N856        N857   1.319       .  A
N856        N862   1.315   1_545  A
N856       Mn885   2.191       .  S
N857        C864   1.350   1_545  A
N858        N860   1.320   1_565  A
N858        N859   1.325       .  A
N858       Mn874   2.213       .  S
N859        C865   1.355       .  A
N860        N861   1.317       .  A
N860       Mn885   2.206       .  S
N861        C865   1.350   1_545  A
N862        N863   1.320       .  A
N862       Mn874   2.198       .  S
N863        C864   1.352       .  A
C864       C1011   1.460       .  S
C865       C1371   1.495       .  S
N866        N872   1.320       .  A
N866        N867   1.318       .  A
N866       Mn896   2.200       .  S
N867        C875   1.349       .  A
N868        N869   1.320       .  A
N868        N870   1.314       .  A
N868       Mn874   2.189       .  S
N869        C876   1.350       .  A
N870        N871   1.319       .  A
N870       Mn896   2.193       .  S
N871        C876   1.351       .  A
N872        N873   1.323       .  A
N872       Mn874   2.222       .  S
N873        C875   1.356       .  A
Mn874      Cl898   2.546       .  S
C875       C1396   1.489       .  S
N877        N878   1.321       .  A
N877        N883   1.319       .  A
N877       Mn885   2.212       .  S
N878        C886   1.355       .  A
N879        N881   1.313       .  A
N879        N880   1.319       .  A
N879       Mn897   2.183       .  S
N880        C887   1.349       .  A
N881        N882   1.320       .  A
N881       Mn885   2.194       .  S
N882        C887   1.352       .  A
N883        N884   1.318       .  A
N883       Mn897   2.197       .  S
N884        C886   1.350       .  A
Mn885      Cl898   2.532   1_545  S
C886       C1354   1.490       .  S
C887        C954   1.460       .  S
N888        N889   1.319       .  A
N888        N894   1.313   1_565  A
N888       Mn896   2.187       .  S
N889        C899   1.351       .  A
N890        N891   1.319       .  A
N890        N892   1.318   1_545  A
N890       Mn897   2.200       .  S
N891        C900   1.351   1_545  A
N892        N893   1.323       .  A
N892       Mn896   2.214       .  S
N893        C900   1.356       .  A
N894        N895   1.317       .  A
N894       Mn897   2.177       .  S
N895        C899   1.348   1_545  A
Mn896      Cl898   2.535       .  S
Mn897      Cl898   2.539   1_545  S
C899       C1067   1.452       .  S
C900       C1382   1.494       .  S
N901        N902   1.318       .  A
N901        N907   1.314       .  A
N901       Mn930   2.178       .  S
N902        C909   1.348       .  A
N903        N905   1.319       .  A
N903        N904   1.316       .  A
N903       Mn919   2.194       .  S
N904        C910   1.350       .  A
N905        N906   1.325       .  A
N905       Mn930   2.219       .  S
N906        C910   1.355       .  A
N907        N908   1.321       .  A
N907       Mn919   2.207       .  S
N908        C909   1.353       .  A
C910       C1326   1.483       .  S
N911        N917   1.318   1_545  A
N911        N912   1.318       .  A
N911       Mn941   2.195       .  S
N912        C920   1.349   1_545  A
N913        N914   1.318       .  A
N913        N915   1.313   1_565  A
N913       Mn919   2.178       .  S
N914        C921   1.349       .  A
N915        N916   1.321       .  A
N915       Mn941   2.206       .  S
N916        C921   1.354   1_545  A
N917        N918   1.323       .  A
N917       Mn919   2.216       .  S
N918        C920   1.355       .  A
Mn919      Cl943   2.534       .  S
C920       C1340   1.487       .  S
C921       C1022   1.460       .  S
N922        N923   1.318       .  A
N922        N928   1.319   1_565  A
N922       Mn930   2.198       .  S
N923        C931   1.351       .  A
N924        N926   1.314   1_545  A
N924        N925   1.318       .  A
N924       Mn942   2.178       .  S
N925        C932   1.348   1_545  A
N926        N927   1.322       .  A
N926       Mn930   2.209       .  S
N927        C932   1.354       .  A
N928        N929   1.323       .  A
N928       Mn942   2.218       .  S
N929        C931   1.355   1_545  A
Mn930      Cl943   2.539       .  S
C931       C1298   1.485       .  S
C932       C1056   1.461       .  S
N933        N934   1.317       .  A
N933        N939   1.314       .  A
N933       Mn941   2.176       .  S
N934        C944   1.348       .  A
N935        N936   1.318       .  A
N935        N937   1.318       .  A
N935       Mn942   2.196       .  S
N936        C945   1.350       .  A
N937        N938   1.322       .  A
N937       Mn941   2.213       .  S
N938        C945   1.355       .  A
N939        N940   1.321       .  A
N939       Mn942   2.204       .  S
N940        C944   1.353       .  A
Mn941      Cl943   2.536   1_545  S
Mn942      Cl943   2.539   1_545  S
C944        C989   1.457       .  S
C945       C1312   1.491       .  S
N946        N947   1.319       .  A
N946        N952   1.314       .  A
N946       Mn975   2.187       .  S
N947        C954   1.349       .  A
N948        N950   1.320       .  A
N948        N949   1.323       .  A
N948       Mn964   2.209       .  S
N949        C955   1.354       .  A
N950        N951   1.316       .  A
N950       Mn975   2.198       .  S
N951        C955   1.348       .  A
N952        N953   1.320       .  A
N952       Mn964   2.198       .  S
N953        C954   1.352       .  A
C955       C1256   1.487       .  S
N956        N962   1.320   1_455  A
N956        N957   1.316       .  A
N956       Mn986   2.203       .  S
N957        C965   1.351       .  A
N958        N959   1.319       .  A
N958        N960   1.314   1_655  A
N958       Mn964   2.182       .  S
N959        C966   1.350   1_655  A
N960        N961   1.321       .  A
N960       Mn986   2.200       .  S
N961        C966   1.352       .  A
N962        N963   1.326       .  A
N962       Mn964   2.222       .  S
N963        C965   1.356   1_655  A
Mn964      Cl988   2.554   1_655  S
C965       C1245   1.492       .  S
C966       C1079   1.460       .  S
N967        N968   1.319       .  A
N967        N973   1.318   1_655  A
N967       Mn975   2.203       .  S
N968        C976   1.353       .  A
N969        N971   1.313   1_455  A
N969        N970   1.318       .  A
N969       Mn987   2.186       .  S
N970        C977   1.350       .  A
N971        N972   1.320       .  A
N971       Mn975   2.190       .  S
N972        C977   1.351   1_655  A
N973        N974   1.322       .  A
N973       Mn987   2.209       .  S
N974        C976   1.354   1_455  A
Mn975      Cl988   2.523   1_655  S
C976       C1287   1.490       .  S
C977       C1034   1.458       .  S
N978        N979   1.319       .  A
N978        N984   1.314       .  A
N978       Mn986   2.180       .  S
N979        C989   1.349       .  A
N980        N981   1.319       .  A
N980        N982   1.320       .  A
N980       Mn987   2.200       .  S
N981        C990   1.349       .  A
N982        N983   1.323       .  A
N982       Mn986   2.212       .  S
N983        C990   1.353       .  A
N984        N985   1.319       .  A
N984       Mn987   2.199       .  S
N985        C989   1.352       .  A
Mn986      Cl988   2.525       .  S
Mn987      Cl988   2.542       .  S
C990       C1273   1.485       .  S
N991        N992   1.320       .  A
N991        N997   1.313   1_455  A
N991      Mn1020   2.194       .  S
N992        C999   1.351       .  A
N993        N995   1.319   1_655  A
N993        N994   1.324       .  A
N993      Mn1009   2.216       .  S
N994       C1000   1.355   1_655  A
N995        N996   1.317       .  A
N995      Mn1020   2.196       .  S
N996       C1000   1.350       .  A
N997        N998   1.320       .  A
N997      Mn1009   2.192       .  S
N998        C999   1.351   1_655  A
C1000      C1203   1.483       .  S
N1001      N1007   1.320   1_545  A
N1001      N1002   1.321       .  A
N1001     Mn1031   2.213       .  S
N1002      C1010   1.354   1_545  A
N1003      N1004   1.320       .  A
N1003      N1005   1.315   1_565  A
N1003     Mn1009   2.189       .  S
N1004      C1011   1.350       .  A
N1005      N1006   1.320       .  A
N1005     Mn1031   2.199       .  S
N1006      C1011   1.352   1_545  A
N1007      N1008   1.320       .  A
N1007     Mn1009   2.209       .  S
N1008      C1010   1.352       .  A
Mn1009    Cl1033   2.547   1_655  S
C1010      C1217   1.494       .  S
N1012      N1013   1.318       .  A
N1012      N1018   1.319   1_565  A
N1012     Mn1020   2.203       .  S
N1013      C1021   1.350       .  A
N1014      N1016   1.313   1_545  A
N1014      N1015   1.320       .  A
N1014     Mn1032   2.186       .  S
N1015      C1022   1.350   1_545  A
N1016      N1017   1.319       .  A
N1016     Mn1020   2.196       .  S
N1017      C1022   1.352       .  A
N1018      N1019   1.324       .  A
N1018     Mn1032   2.212       .  S
N1019      C1021   1.354   1_545  A
Mn1020    Cl1033   2.524       .  S
C1021      C1186   1.484       .  S
N1023      N1024   1.320       .  A
N1023      N1029   1.314   1_655  A
N1023     Mn1031   2.190       .  S
N1024      C1034   1.351   1_655  A
N1025      N1026   1.319       .  A
N1025      N1027   1.321   1_455  A
N1025     Mn1032   2.209       .  S
N1026      C1035   1.350       .  A
N1027      N1028   1.324       .  A
N1027     Mn1031   2.219       .  S
N1028      C1035   1.353   1_655  A
N1029      N1030   1.318       .  A
N1029     Mn1032   2.189       .  S
N1030      C1034   1.349       .  A
Mn1031    Cl1033   2.539   1_645  S
Mn1032    Cl1033   2.540   1_545  S
C1035      C1228   1.487       .  S
N1036      N1037   1.320       .  A
N1036      N1042   1.313   1_655  A
N1036     Mn1065   2.192       .  S
N1037      C1044   1.351   1_655  A
N1038      N1040   1.319   1_455  A
N1038      N1039   1.321       .  A
N1038     Mn1054   2.210       .  S
N1039      C1045   1.354       .  A
N1040      N1041   1.319       .  A
N1040     Mn1065   2.202       .  S
N1041      C1045   1.350   1_655  A
N1042      N1043   1.321       .  A
N1042     Mn1054   2.196       .  S
N1043      C1044   1.352       .  A
C1045      C1172   1.490       .  S
N1046      N1052   1.321   1_545  A
N1046      N1047   1.319       .  A
N1046     Mn1076   2.207       .  S
N1047      C1055   1.350   1_545  A
N1048      N1049   1.320       .  A
N1048      N1050   1.314   1_565  A
N1048     Mn1054   2.184       .  S
N1049      C1056   1.349       .  A
N1050      N1051   1.320       .  A
N1050     Mn1076   2.205       .  S
N1051      C1056   1.353   1_545  A
N1052      N1053   1.323       .  A
N1052     Mn1054   2.213       .  S
N1053      C1055   1.352       .  A
Mn1054    Cl1078   2.549       .  S
C1055      C1158   1.485       .  S
N1057      N1058   1.318       .  A
N1057      N1063   1.319   1_565  A
N1057     Mn1065   2.203       .  S
N1058      C1066   1.350       .  A
N1059      N1061   1.313   1_545  A
N1059      N1060   1.318       .  A
N1059     Mn1077   2.188       .  S
N1060      C1067   1.350   1_545  A
N1061      N1062   1.318       .  A
N1061     Mn1065   2.180       .  S
N1062      C1067   1.349       .  A
N1063      N1064   1.324       .  A
N1063     Mn1077   2.217       .  S
N1064      C1066   1.356   1_545  A
Mn1065    Cl1078   2.529   1_655  S
C1066      C1130   1.496       .  S
N1068      N1069   1.320       .  A
N1068      N1074   1.314   1_455  A
N1068     Mn1076   2.192       .  S
N1069      C1079   1.351       .  A
N1070      N1071   1.322       .  A
N1070      N1072   1.320   1_655  A
N1070     Mn1077   2.212       .  S
N1071      C1080   1.353   1_655  A
N1072      N1073   1.322       .  A
N1072     Mn1076   2.219       .  S
N1073      C1080   1.355       .  A
N1074      N1075   1.319       .  A
N1074     Mn1077   2.191       .  S
N1075      C1079   1.351   1_655  A
Mn1076    Cl1078   2.529   1_545  S
Mn1077    Cl1078   2.549   1_645  S
C1080      C1144   1.497       .  S
C1081      C1082   1.367   1_455  D
C1081      C1903   1.500   1_455  S
C1081      C1956   1.499       .  S
C1082      C1231   1.501       .  S
C1082      C1284   1.499       .  S
C1083      C1084   1.376       .  D
C1083      C1511   1.512   1_565  S
C1083      C1620   1.511       .  S
C1084      C1214   1.501       .  S
C1084      C1368   1.496       .  S
C1085      C1086   1.374       .  D
C1085      C1847   1.502       .  S
C1085      C1945   1.497       .  S
C1086      C1200   1.510       .  S
C1086      C1424   1.504       .  S
C1087      C1088   1.368       .  D
C1087      C1567   1.496       .  S
C1087      C1609   1.501       .  S
C1088      C1189   1.509       .  S
C1088      C1343   1.498       .  S
C1089      C1090   1.369       .  D
C1089      C2183   1.503       .  S
C1089      C2449   1.503       .  S
C1090      C1270   1.503       .  S
C1090      C1315   1.499       .  S
C1091      C1092   1.368       .  D
C1091      C2278   1.508       .  S
C1091      C2460   1.498       .  S
C1092      C1259   1.489       .  S
C1092      C1357   1.497       .  S
C1093      C1094   1.369       .  D
C1093      C2169   1.491       .  S
C1093      C2334   1.503       .  S
C1094      C1329   1.501       .  S
C1094      C1410   1.509       .  S
C1095      C1096   1.366       .  D
C1095      C1553   1.498       .  S
C1095      C1704   1.498       .  S
C1096      C1161   1.499       .  S
C1096      C1301   1.500       .  S
C1097      C1098   1.373       .  D
C1097      C1889   1.500       .  S
C1097      C2015   1.513       .  S
C1098      C1536   1.500       .  S
C1098      C1651   1.500       .  S
C1099      C1100   1.370       .  D
C1099      C1816   1.510       .  S
C1099      C2001   1.499       .  S
C1100      C1525   1.497       .  S
C1100      C1749   1.505       .  S
C1101      C1102   1.365       .  D
C1101      C2351   1.498       .  S
C1101      C2404   1.498       .  S
C1102      C1595   1.501       .  S
C1102      C1777   1.496       .  S
C1103      C1104   1.374       .  D
C1103      C2393   1.505       .  S
C1103      C2432   1.507       .  S
C1104      C1581   1.502       .  S
C1104      C1679   1.498       .  S
C1105      C1106   1.380       .  D
C1105      C2236   1.494       .  S
C1105      C2418   1.532       .  S
C1106      C1665   1.508       .  S
C1106      C1721   1.491       .  S
C1107      C1108   1.376       .  D
C1107      C1875   1.505       .  S
C1107      C2043   1.511       .  S
C1108      C1147   1.502       .  S
C1108      C1242   1.507       .  S
C1109      C1110   1.381       .  D
C1109      C1861   1.518       .  S
C1109      C2082   1.508       .  S
C1110      C1469   1.503       .  S
C1110      C1637   1.532       .  S
C1111      C1112   1.367       .  D
C1111      C2155   1.509       .  S
C1111      C2379   1.501       .  S
C1112      C1931   1.496       .  S
C1112      C1987   1.501       .  S
C1113      C1114   1.375       .  D
C1113      C2295   1.514       .  S
C1113      C2365   1.497       .  S
C1114      C1914   1.497       .  S
C1114      C2113   1.504       .  S
C1115      C1116   1.365       .  D
C1115      C2141   1.500       .  S
C1115      C2222   1.500       .  S
C1116      C1973   1.496       .  S
C1116      C2029   1.496       .  S
C1117      C1118   1.369       .  D
C1117      C1830   1.503       .  S
C1117      C2054   1.499       .  S
C1118      C1175   1.500       .  S
C1118      C1441   1.498       .  S
C1119      C1120   1.375       .  D
C1119      C1497   1.501       .  S
C1119      C1693   1.511       .  S
C1120      C1133   1.498       .  S
C1120      C1385   1.499       .  S
C1121      C1122   1.389       .  D
C1121      C1802   1.551       .  S
C1121      C2099   1.499       .  S
C1122      C1483   1.502       .  S
C1122      C1760   1.513   1_556  S
C1123      C1124   1.372       .  D
C1123      C2068   1.503       .  S
C1123      C2127   1.505       .  S
C1124      C2211   1.498       .  S
C1124      C2264   1.500       .  S
C1125      C1126   1.372       .  D
C1125      C2253   1.498       .  S
C1125      C2309   1.497       .  S
C1126      C1399   1.501       .  S
C1126      C1455   1.506       .  S
C1127      C1128   1.370       .  D
C1127      C2197   1.500       .  S
C1127      C2323   1.505       .  S
C1128      C1735   1.501       .  S
C1128      C1791   1.499       .  S
C1129      C1130   1.407   1_545  A
C1129      C1134   1.414       .  A
C1129      H1136   1.083       .  S
C1130      C1131   1.416       .  A
C1131      C1132   1.399       .  A
C1131      N1138   1.435       .  S
C1132      C1133   1.401       .  A
C1132      H1137   1.081       .  S
C1133      C1134   1.424   1_565  A
C1134      N1135   1.446       .  S
N1135      O1139   1.263       .  A
N1135      O1140   1.260       .  A
N1138      O1141   1.263       .  A
N1138      O1142   1.263       .  A
C1143      C1144   1.405       .  A
C1143      C1148   1.411       .  A
C1143      H1150   1.083       .  S
C1144      C1145   1.416   1_455  A
C1145      C1146   1.405       .  A
C1145      N1152   1.435       .  S
C1146      C1147   1.404   1_655  A
C1146      H1151   1.084       .  S
C1147      C1148   1.424       .  A
C1148      N1149   1.442       .  S
N1149      O1153   1.263       .  A
N1149      O1154   1.259       .  A
N1152      O1155   1.263       .  A
N1152      O1156   1.263       .  A
C1157      C1158   1.405       .  A
C1157      C1162   1.413       .  A
C1157      H1164   1.083       .  S
C1158      C1159   1.414   1_565  A
C1159      C1160   1.393       .  A
C1159      N1166   1.434       .  S
C1160      C1161   1.402   1_545  A
C1160      H1165   1.084       .  S
C1161      C1162   1.423       .  A
C1162      N1163   1.439       .  S
N1163      O1167   1.263       .  A
N1163      O1168   1.261       .  A
N1166      O1169   1.262       .  A
N1166      O1170   1.262       .  A
C1171      C1172   1.405       .  A
C1171      C1176   1.408       .  A
C1171      H1178   1.083       .  S
C1172      C1173   1.415   1_455  A
C1173      C1174   1.398       .  A
C1173      N1180   1.430       .  S
C1174      C1175   1.402   1_655  A
C1174      H1179   1.082       .  S
C1175      C1176   1.421       .  A
C1176      N1177   1.439       .  S
N1177      O1181   1.263       .  A
N1177      O1182   1.258       .  A
N1180      O1183   1.263       .  A
N1180      O1184   1.262       .  A
C1185      C1186   1.403   1_545  A
C1185      C1190   1.413       .  A
C1185      H1192   1.084       .  S
C1186      C1187   1.413       .  A
C1187      C1188   1.393       .  A
C1187      N1194   1.435       .  S
C1188      C1189   1.406       .  A
C1188      H1193   1.082       .  S
C1189      C1190   1.422   1_565  A
C1190      N1191   1.430       .  S
N1191      O1195   1.263       .  A
N1191      O1196   1.260       .  A
N1194      O1197   1.262       .  A
N1194      O1198   1.262       .  A
C1199      C1200   1.411   1_655  A
C1199      C1204   1.411       .  A
C1199      H1206   1.076       .  S
C1200      C1201   1.417       .  A
C1201      C1202   1.395       .  A
C1201      N1208   1.430       .  S
C1202      C1203   1.402       .  A
C1202      H1207   1.084       .  S
C1203      C1204   1.412   1_455  A
C1204      N1205   1.441       .  S
N1205      O1209   1.263       .  A
N1205      O1210   1.263       .  A
N1208      O1211   1.261       .  A
N1208      O1212   1.263       .  A
C1213      C1214   1.405       .  A
C1213      C1218   1.402       .  A
C1213      H1220   1.081       .  S
C1214      C1215   1.425   1_565  A
C1215      C1216   1.412       .  A
C1215      N1222   1.447       .  S
C1216      C1217   1.405   1_545  A
C1216      H1221   1.082       .  S
C1217      C1218   1.414       .  A
C1218      N1219   1.436       .  S
N1219      O1223   1.263       .  A
N1219      O1224   1.263       .  A
N1222      O1225   1.258       .  A
N1222      O1226   1.263       .  A
C1227      C1228   1.406   1_655  A
C1227      C1232   1.416       .  A
C1227      H1234   1.083       .  S
C1228      C1229   1.414       .  A
C1229      C1230   1.393       .  A
C1229      N1236   1.435       .  S
C1230      C1231   1.403   1_455  A
C1230      H1235   1.083       .  S
C1231      C1232   1.423       .  A
C1232      N1233   1.439       .  S
N1233      O1237   1.263       .  A
N1233      O1238   1.261       .  A
N1236      O1239   1.262       .  A
N1236      O1240   1.262       .  A
C1241      C1242   1.411   1_655  A
C1241      C1246   1.417       .  A
C1241      H1248   1.081       .  S
C1242      C1243   1.414       .  A
C1243      C1244   1.392       .  A
C1243      N1250   1.428       .  S
C1244      C1245   1.403       .  A
C1244      H1249   1.084       .  S
C1245      C1246   1.417   1_455  A
C1246      N1247   1.439       .  S
N1247      O1251   1.263       .  A
N1247      O1252   1.262       .  A
N1250      O1253   1.262       .  A
N1250      O1254   1.262       .  A
C1255      C1256   1.406       .  A
C1255      C1260   1.407       .  A
C1255      H1262   1.084       .  S
C1256      C1257   1.416       .  A
C1257      C1258   1.393       .  A
C1257      N1264   1.430       .  S
C1258      C1259   1.399       .  A
C1258      H1263   1.082       .  S
C1259      C1260   1.416       .  A
C1260      N1261   1.434       .  S
N1261      O1265   1.262       .  A
N1261      O1266   1.260       .  A
N1264      O1267   1.262       .  A
N1264      O1268   1.262       .  A
C1269      C1270   1.403       .  A
C1269      C1274   1.395       .  A
C1269      H1276   1.080       .  S
C1270      C1271   1.421       .  A
C1271      C1272   1.410       .  A
C1271      N1278   1.433       .  S
C1272      C1273   1.403       .  A
C1272      H1277   1.084       .  S
C1273      C1274   1.415       .  A
C1274      N1275   1.434       .  S
N1275      O1279   1.262       .  A
N1275      O1280   1.263       .  A
N1278      O1281   1.263       .  A
N1278      O1282   1.260       .  A
C1283      C1284   1.405   1_455  A
C1283      C1288   1.410       .  A
C1283      H1290   1.082       .  S
C1284      C1285   1.406       .  A
C1285      C1286   1.397       .  A
C1285      N1292   1.429       .  S
C1286      C1287   1.406       .  A
C1286      H1291   1.083       .  S
C1287      C1288   1.418   1_655  A
C1288      N1289   1.438       .  S
N1289      O1293   1.263       .  A
N1289      O1294   1.263       .  A
N1292      O1295   1.262       .  A
N1292      O1296   1.262       .  A
C1297      C1298   1.405       .  A
C1297      C1302   1.394       .  A
C1297      H1304   1.084       .  S
C1298      C1299   1.416   1_565  A
C1299      C1300   1.411       .  A
C1299      N1306   1.441       .  S
C1300      C1301   1.407   1_545  A
C1300      H1305   1.080       .  S
C1301      C1302   1.407       .  A
C1302      N1303   1.428       .  S
N1303      O1307   1.262       .  A
N1303      O1308   1.262       .  A
N1306      O1309   1.263       .  A
N1306      O1310   1.263       .  A
C1311      C1312   1.405       .  A
C1311      C1316   1.408       .  A
C1311      H1318   1.083       .  S
C1312      C1313   1.416       .  A
C1313      C1314   1.400       .  A
C1313      N1320   1.435       .  S
C1314      C1315   1.401       .  A
C1314      H1319   1.082       .  S
C1315      C1316   1.421       .  A
C1316      N1317   1.438       .  S
N1317      O1321   1.263       .  A
N1317      O1322   1.259       .  A
N1320      O1323   1.263       .  A
N1320      O1324   1.263       .  A
C1325      C1326   1.403       .  A
C1325      C1330   1.391       .  A
C1325      H1332   1.084       .  S
C1326      C1327   1.417       .  A
C1327      C1328   1.414       .  A
C1327      N1334   1.442       .  S
C1328      C1329   1.410       .  A
C1328      H1333   1.081       .  S
C1329      C1330   1.410       .  A
C1330      N1331   1.431       .  S
N1331      O1335   1.262       .  A
N1331      O1336   1.261       .  A
N1334      O1337   1.263       .  A
N1334      O1338   1.263       .  A
C1339      C1340   1.405       .  A
C1339      C1344   1.409       .  A
C1339      H1346   1.084       .  S
C1340      C1341   1.416   1_565  A
C1341      C1342   1.395       .  A
C1341      N1348   1.431       .  S
C1342      C1343   1.400   1_545  A
C1342      H1347   1.084       .  S
C1343      C1344   1.420       .  A
C1344      N1345   1.439       .  S
N1345      O1349   1.263       .  A
N1345      O1350   1.261       .  A
N1348      O1351   1.262       .  A
N1348      O1352   1.262       .  A
C1353      C1354   1.404       .  A
C1353      C1358   1.409       .  A
C1353      H1360   1.083       .  S
C1354      C1355   1.414       .  A
C1355      C1356   1.398       .  A
C1355      N1362   1.431       .  S
C1356      C1357   1.402       .  A
C1356      H1361   1.082       .  S
C1357      C1358   1.423       .  A
C1358      N1359   1.442       .  S
N1359      O1363   1.263       .  A
N1359      O1364   1.258       .  A
N1362      O1365   1.262       .  A
N1362      O1366   1.262       .  A
C1367      C1368   1.401   1_545  A
C1367      C1372   1.397       .  A
C1367      H1374   1.079       .  S
C1368      C1369   1.421       .  A
C1369      C1370   1.415       .  A
C1369      N1376   1.442       .  S
C1370      C1371   1.409       .  A
C1370      H1375   1.083       .  S
C1371      C1372   1.415   1_565  A
C1372      N1373   1.436       .  S
N1373      O1377   1.263       .  A
N1373      O1378   1.263       .  A
N1376      O1379   1.263       .  A
N1376      O1380   1.261       .  A
C1381      C1382   1.407       .  A
C1381      C1386   1.408       .  A
C1381      H1388   1.083       .  S
C1382      C1383   1.418   1_565  A
C1383      C1384   1.403       .  A
C1383      N1390   1.436       .  S
C1384      C1385   1.403   1_545  A
C1384      H1389   1.080       .  S
C1385      C1386   1.415       .  A
C1386      N1387   1.434       .  S
N1387      O1391   1.263       .  A
N1387      O1392   1.260       .  A
N1390      O1393   1.263       .  A
N1390      O1394   1.263       .  A
C1395      C1396   1.403       .  A
C1395      C1400   1.408       .  A
C1395      H1402   1.084       .  S
C1396      C1397   1.416       .  A
C1397      C1398   1.398       .  A
C1397      N1404   1.435       .  S
C1398      C1399   1.403       .  A
C1398      H1403   1.084       .  S
C1399      C1400   1.423       .  A
C1400      N1401   1.437       .  S
N1401      O1405   1.263       .  A
N1401      O1406   1.260       .  A
N1404      O1407   1.263       .  A
N1404      O1408   1.263       .  A
C1409      C1410   1.405       .  A
C1409      C1414   1.399       .  A
C1409      H1416   1.084       .  S
C1410      C1411   1.420       .  A
C1411      C1412   1.405       .  A
C1411      N1418   1.427       .  S
C1412      C1413   1.401       .  A
C1412      H1417   1.084       .  S
C1413      C1414   1.416       .  A
C1414      N1415   1.434       .  S
N1415      O1419   1.262       .  A
N1415      O1420   1.263       .  A
N1418      O1421   1.262       .  A
N1418      O1422   1.261       .  A
C1423      C1424   1.407       .  A
C1423      C1428   1.407       .  A
C1423      H1430   1.081       .  S
C1424      C1425   1.417   1_455  A
C1425      C1426   1.402       .  A
C1425      N1432   1.435       .  S
C1426      C1427   1.404   1_655  A
C1426      H1431   1.083       .  S
C1427      C1428   1.412       .  A
C1428      N1429   1.433       .  S
N1429      O1433   1.262       .  A
N1429      O1434   1.262       .  A
N1432      O1435   1.263       .  A
N1432      O1436   1.260       .  A
C1437      C1438   1.405   1_655  A
C1437      C1442   1.413       .  A
C1437      H1444   1.083       .  S
C1438      C1439   1.416       .  A
C1439      C1440   1.393       .  A
C1439      N1446   1.435       .  S
C1440      C1441   1.401       .  A
C1440      H1445   1.081       .  S
C1441      C1442   1.422   1_455  A
C1442      N1443   1.439       .  S
N1443      O1447   1.263       .  A
N1443      O1448   1.262       .  A
N1446      O1449   1.263       .  A
N1446      O1450   1.262       .  A
C1451      C1452   1.403       .  A
C1451      C1456   1.392       .  A
C1451      H1458   1.084       .  S
C1452      C1453   1.417       .  A
C1453      C1454   1.417       .  A
C1453      N1460   1.441       .  S
C1454      C1455   1.411       .  A
C1454      H1459   1.081       .  S
C1455      C1456   1.412       .  A
C1456      N1457   1.429       .  S
N1457      O1461   1.262       .  A
N1457      O1462   1.262       .  A
N1460      O1463   1.263       .  A
N1460      O1464   1.263       .  A
C1465      C1466   1.403       .  A
C1465      C1470   1.408       .  A
C1465      H1472   1.082       .  S
C1466      C1467   1.414   1_554  A
C1467      C1468   1.401       .  A
C1467      N1474   1.429       .  S
C1468      C1469   1.403   1_556  A
C1468      H1473   1.084       .  S
C1469      C1470   1.429       .  A
C1470      N1471   1.448       .  S
N1471      O1475   1.263       .  A
N1471      O1476   1.260       .  A
N1474      O1477   1.262       .  A
N1474      O1478   1.262       .  A
C1479      C1480   1.404   1_554  A
C1479      C1484   1.419       .  A
C1479      H1486   1.083       .  S
C1480      C1481   1.413       .  A
C1481      C1482   1.395       .  A
C1481      N1488   1.436       .  S
C1482      C1483   1.404       .  A
C1482      H1487   1.081       .  S
C1483      C1484   1.431   1_556  A
C1484      N1485   1.448       .  S
N1485      O1489   1.263       .  A
N1485      O1490   1.260       .  A
N1488      O1491   1.262       .  A
N1488      O1492   1.263       .  A
C1493      C1494   1.404   1_565  A
C1493      C1498   1.410       .  A
C1493      H1500   1.084       .  S
C1494      C1495   1.417       .  A
C1495      C1496   1.398       .  A
C1495      N1502   1.435       .  S
C1496      C1497   1.402   1_545  A
C1496      H1501   1.084       .  S
C1497      C1498   1.423       .  A
C1498      N1499   1.437       .  S
N1499      O1503   1.263       .  A
N1499      O1504   1.260       .  A
N1502      O1505   1.263       .  A
N1502      O1506   1.263       .  A
C1507      C1508   1.403   1_545  A
C1507      C1512   1.396       .  A
C1507      H1514   1.084       .  S
C1508      C1509   1.416       .  A
C1509      C1510   1.414       .  A
C1509      N1516   1.441       .  S
C1510      C1511   1.411   1_565  A
C1510      H1515   1.080       .  S
C1511      C1512   1.415       .  A
C1512      N1513   1.432       .  S
N1513      O1517   1.263       .  A
N1513      O1518   1.260       .  A
N1516      O1519   1.263       .  A
N1516      O1520   1.263       .  A
C1521      C1522   1.406   1_554  A
C1521      C1526   1.414       .  A
C1521      H1528   1.083       .  S
C1522      C1523   1.415       .  A
C1523      C1524   1.392       .  A
C1523      N1530   1.433       .  S
C1524      C1525   1.401       .  A
C1524      H1529   1.080       .  S
C1525      C1526   1.422   1_556  A
C1526      N1527   1.440       .  S
N1527      O1531   1.263       .  A
N1527      O1532   1.262       .  A
N1530      O1533   1.263       .  A
N1530      O1534   1.262       .  A
C1535      C1536   1.404   1_554  A
C1535      C1540   1.407       .  A
C1535      H1542   1.081       .  S
C1536      C1537   1.411       .  A
C1537      C1538   1.401       .  A
C1537      N1544   1.429       .  S
C1538      C1539   1.406       .  A
C1538      H1543   1.084       .  S
C1539      C1540   1.419   1_556  A
C1540      N1541   1.436       .  S
N1541      O1545   1.263       .  A
N1541      O1546   1.262       .  A
N1544      O1547   1.261       .  A
N1544      O1548   1.262       .  A
C1549      C1550   1.405   1_545  A
C1549      C1554   1.414       .  A
C1549      H1556   1.083       .  S
C1550      C1551   1.413       .  A
C1551      C1552   1.392       .  A
C1551      N1558   1.433       .  S
C1552      C1553   1.403       .  A
C1552      H1557   1.083       .  S
C1553      C1554   1.423   1_565  A
C1554      N1555   1.440       .  S
N1555      O1559   1.263       .  A
N1555      O1560   1.261       .  A
N1558      O1561   1.262       .  A
N1558      O1562   1.262       .  A
C1563      C1564   1.406       .  A
C1563      C1568   1.411       .  A
C1563      H1570   1.084       .  S
C1564      C1565   1.416   1_565  A
C1565      C1566   1.395       .  A
C1565      N1572   1.434       .  S
C1566      C1567   1.401   1_545  A
C1566      H1571   1.080       .  S
C1567      C1568   1.419       .  A
C1568      N1569   1.434       .  S
N1569      O1573   1.263       .  A
N1569      O1574   1.260       .  A
N1572      O1575   1.262       .  A
N1572      O1576   1.263       .  A
C1577      C1578   1.405       .  A
C1577      C1582   1.398       .  A
C1577      H1584   1.083       .  S
C1578      C1579   1.415       .  A
C1579      C1580   1.412       .  A
C1579      N1586   1.440       .  S
C1580      C1581   1.409       .  A
C1580      H1585   1.078       .  S
C1581      C1582   1.411       .  A
C1582      N1583   1.430       .  S
N1583      O1587   1.259       .  A
N1583      O1588   1.263       .  A
N1586      O1589   1.263       .  A
N1586      O1590   1.263       .  A
C1591      C1592   1.402       .  A
C1591      C1596   1.408       .  A
C1591      H1598   1.084       .  S
C1592      C1593   1.416       .  A
C1593      C1594   1.394       .  A
C1593      N1600   1.436       .  S
C1594      C1595   1.402       .  A
C1594      H1599   1.080       .  S
C1595      C1596   1.418       .  A
C1596      N1597   1.429       .  S
N1597      O1601   1.262       .  A
N1597      O1602   1.261       .  A
N1600      O1603   1.262       .  A
N1600      O1604   1.263       .  A
C1605      C1606   1.404   1_545  A
C1605      C1610   1.409       .  A
C1605      H1612   1.084       .  S
C1606      C1607   1.417       .  A
C1607      C1608   1.400       .  A
C1607      N1614   1.435       .  S
C1608      C1609   1.401       .  A
C1608      H1613   1.083       .  S
C1609      C1610   1.423   1_565  A
C1610      N1611   1.439       .  S
N1611      O1615   1.263       .  A
N1611      O1616   1.259       .  A
N1614      O1617   1.263       .  A
N1614      O1618   1.263       .  A
C1619      C1620   1.407       .  A
C1619      C1624   1.397       .  A
C1619      H1626   1.084       .  S
C1620      C1621   1.424   1_565  A
C1621      C1622   1.407       .  A
C1621      N1628   1.428       .  S
C1622      C1623   1.398   1_545  A
C1622      H1627   1.084       .  S
C1623      C1624   1.414       .  A
C1624      N1625   1.436       .  S
N1625      O1629   1.263       .  A
N1625      O1630   1.262       .  A
N1628      O1631   1.260       .  A
N1628      O1632   1.263       .  A
C1633      C1634   1.396   1_556  A
C1633      C1638   1.413       .  A
C1633      H1640   1.084       .  S
C1634      C1635   1.408       .  A
C1635      C1636   1.394       .  A
C1635      N1642   1.436       .  S
C1636      C1637   1.412       .  A
C1636      H1641   1.073       .  S
C1637      C1638   1.430   1_554  A
C1638      N1639   1.425       .  S
N1639      O1643   1.262       .  A
N1639      O1644   1.264       .  A
N1642      O1645   1.262       .  A
N1642      O1646   1.262       .  A
C1647      C1648   1.408       .  A
C1647      C1652   1.414       .  A
C1647      H1654   1.083       .  S
C1648      C1649   1.415   1_556  A
C1649      C1650   1.400       .  A
C1649      N1656   1.436       .  S
C1650      C1651   1.404   1_554  A
C1650      H1655   1.082       .  S
C1651      C1652   1.421       .  A
C1652      N1653   1.443       .  S
N1653      O1657   1.263       .  A
N1653      O1658   1.260       .  A
N1656      O1659   1.263       .  A
N1656      O1660   1.263       .  A
C1661      C1662   1.405       .  A
C1661      C1666   1.409       .  A
C1661      H1668   1.083       .  S
C1662      C1663   1.414       .  A
C1663      C1664   1.400       .  A
C1663      N1670   1.432       .  S
C1664      C1665   1.405       .  A
C1664      H1669   1.080       .  S
C1665      C1666   1.419       .  A
C1666      N1667   1.432       .  S
N1667      O1671   1.263       .  A
N1667      O1672   1.260       .  A
N1670      O1673   1.262       .  A
N1670      O1674   1.262       .  A
C1675      C1676   1.407       .  A
C1675      C1680   1.411       .  A
C1675      H1682   1.083       .  S
C1676      C1677   1.413       .  A
C1677      C1678   1.399       .  A
C1677      N1684   1.439       .  S
C1678      C1679   1.400       .  A
C1678      H1683   1.073       .  S
C1679      C1680   1.417       .  A
C1680      N1681   1.438       .  S
N1681      O1685   1.263       .  A
N1681      O1686   1.262       .  A
N1684      O1687   1.263       .  A
N1684      O1688   1.263       .  A
C1689      C1690   1.401       .  A
C1689      C1694   1.393       .  A
C1689      H1696   1.084       .  S
C1690      C1691   1.417   1_565  A
C1691      C1692   1.417       .  A
C1691      N1698   1.443       .  S
C1692      C1693   1.412   1_545  A
C1692      H1697   1.079       .  S
C1693      C1694   1.415       .  A
C1694      N1695   1.429       .  S
N1695      O1699   1.262       .  A
N1695      O1700   1.262       .  A
N1698      O1701   1.263       .  A
N1698      O1702   1.263       .  A
C1703      C1704   1.405       .  A
C1703      C1708   1.411       .  A
C1703      H1710   1.083       .  S
C1704      C1705   1.407   1_565  A
C1705      C1706   1.397       .  A
C1705      N1712   1.429       .  S
C1706      C1707   1.406   1_545  A
C1706      H1711   1.083       .  S
C1707      C1708   1.419       .  A
C1708      N1709   1.438       .  S
N1709      O1713   1.263       .  A
N1709      O1714   1.263       .  A
N1712      O1715   1.262       .  A
N1712      O1716   1.262       .  A
C1717      C1718   1.405       .  A
C1717      C1722   1.404       .  A
C1717      H1724   1.083       .  S
C1718      C1719   1.418       .  A
C1719      C1720   1.403       .  A
C1719      N1726   1.431       .  S
C1720      C1721   1.402       .  A
C1720      H1725   1.083       .  S
C1721      C1722   1.418       .  A
C1722      N1723   1.442       .  S
N1723      O1727   1.263       .  A
N1723      O1728   1.262       .  A
N1726      O1729   1.262       .  A
N1726      O1730   1.263       .  A
C1731      C1732   1.406       .  A
C1731      C1736   1.408       .  A
C1731      H1738   1.083       .  S
C1732      C1733   1.416       .  A
C1733      C1734   1.402       .  A
C1733      N1740   1.435       .  S
C1734      C1735   1.403       .  A
C1734      H1739   1.081       .  S
C1735      C1736   1.419       .  A
C1736      N1737   1.438       .  S
N1737      O1741   1.263       .  A
N1737      O1742   1.259       .  A
N1740      O1743   1.262       .  A
N1740      O1744   1.263       .  A
C1745      C1746   1.404       .  A
C1745      C1750   1.411       .  A
C1745      H1752   1.082       .  S
C1746      C1747   1.415   1_556  A
C1747      C1748   1.402       .  A
C1747      N1754   1.436       .  S
C1748      C1749   1.403   1_554  A
C1748      H1753   1.081       .  S
C1749      C1750   1.426       .  A
C1750      N1751   1.446       .  S
N1751      O1755   1.263       .  A
N1751      O1756   1.258       .  A
N1754      O1757   1.263       .  A
N1754      O1758   1.263       .  A
C1759      C1760   1.405   1_556  A
C1759      C1764   1.404       .  A
C1759      H1766   1.078       .  S
C1760      C1761   1.414       .  A
C1761      C1762   1.409       .  A
C1761      N1768   1.433       .  S
C1762      C1763   1.408   1_554  A
C1762      H1767   1.083       .  S
C1763      C1764   1.416       .  A
C1764      N1765   1.437       .  S
N1765      O1769   1.263       .  A
N1765      O1770   1.262       .  A
N1768      O1771   1.260       .  A
N1768      O1772   1.262       .  A
C1773      C1774   1.405       .  A
C1773      C1778   1.407       .  A
C1773      H1780   1.084       .  S
C1774      C1775   1.418       .  A
C1775      C1776   1.396       .  A
C1775      N1782   1.432       .  S
C1776      C1777   1.399       .  A
C1776      H1781   1.083       .  S
C1777      C1778   1.416       .  A
C1778      N1779   1.431       .  S
N1779      O1783   1.262       .  A
N1779      O1784   1.261       .  A
N1782      O1785   1.262       .  A
N1782      O1786   1.263       .  A
C1787      C1788   1.406       .  A
C1787      C1792   1.412       .  A
C1787      H1794   1.083       .  S
C1788      C1789   1.415       .  A
C1789      C1790   1.394       .  A
C1789      N1796   1.433       .  S
C1790      C1791   1.401       .  A
C1790      H1795   1.081       .  S
C1791      C1792   1.421       .  A
C1792      N1793   1.439       .  S
N1793      O1797   1.263       .  A
N1793      O1798   1.261       .  A
N1796      O1799   1.262       .  A
N1796      O1800   1.263       .  A
C1801      C1802   1.421       .  A
C1801      C1806   1.421       .  A
C1801      H1808   1.069       .  S
C1802      C1803   1.433       .  A
C1803      C1804   1.392       .  A
C1803      N1810   1.433       .  S
C1804      C1805   1.391       .  A
C1804      H1809   1.086       .  S
C1805      C1806   1.413       .  A
C1806      N1807   1.445       .  S
N1807      O1811   1.263       .  A
N1807      O1812   1.262       .  A
N1810      O1813   1.262       .  A
N1810      O1814   1.263       .  A
C1815      C1816   1.406   1_554  A
C1815      C1820   1.395       .  A
C1815      H1822   1.082       .  S
C1816      C1817   1.425       .  A
C1817      C1818   1.411       .  A
C1817      N1824   1.434       .  S
C1818      C1819   1.403   1_556  A
C1818      H1823   1.084       .  S
C1819      C1820   1.411       .  A
C1820      N1821   1.431       .  S
N1821      O1825   1.262       .  A
N1821      O1826   1.262       .  A
N1824      O1827   1.260       .  A
N1824      O1828   1.263       .  A
C1829      C1830   1.409   1_655  A
C1829      C1834   1.413       .  A
C1829      H1836   1.081       .  S
C1830      C1831   1.412       .  A
C1831      C1832   1.392       .  A
C1831      N1838   1.431       .  S
C1832      C1833   1.403       .  A
C1832      H1837   1.084       .  S
C1833      C1834   1.416   1_455  A
C1834      N1835   1.441       .  S
N1835      O1839   1.263       .  A
N1835      O1840   1.263       .  A
N1838      O1841   1.262       .  A
N1838      O1842   1.262       .  A
C1843      C1844   1.406       .  A
C1843      C1848   1.406       .  A
C1843      H1850   1.083       .  S
C1844      C1845   1.415   1_455  A
C1845      C1846   1.404       .  A
C1845      N1852   1.437       .  S
C1846      C1847   1.405   1_655  A
C1846      H1851   1.079       .  S
C1847      C1848   1.416       .  A
C1848      N1849   1.436       .  S
N1849      O1853   1.263       .  A
N1849      O1854   1.260       .  A
N1852      O1855   1.263       .  A
N1852      O1856   1.263       .  A
C1857      C1858   1.400   1_554  A
C1857      C1862   1.402       .  A
C1857      H1864   1.084       .  S
C1858      C1859   1.416       .  A
C1859      C1860   1.407       .  A
C1859      N1866   1.433       .  S
C1860      C1861   1.409   1_556  A
C1860      H1865   1.079       .  S
C1861      C1862   1.419       .  A
C1862      N1863   1.428       .  S
N1863      O1867   1.263       .  A
N1863      O1868   1.259       .  A
N1866      O1869   1.262       .  A
N1866      O1870   1.263       .  A
C1871      C1872   1.404       .  A
C1871      C1876   1.399       .  A
C1871      H1878   1.083       .  S
C1872      C1873   1.416   1_455  A
C1873      C1874   1.409       .  A
C1873      N1880   1.430       .  S
C1874      C1875   1.408   1_655  A
C1874      H1879   1.083       .  S
C1875      C1876   1.416       .  A
C1876      N1877   1.430       .  S
N1877      O1881   1.259       .  A
N1877      O1882   1.263       .  A
N1880      O1883   1.262       .  A
N1880      O1884   1.262       .  A
C1885      C1886   1.407       .  A
C1885      C1890   1.406       .  A
C1885      H1892   1.083       .  S
C1886      C1887   1.415   1_554  A
C1887      C1888   1.406       .  A
C1887      N1894   1.439       .  S
C1888      C1889   1.404       .  A
C1888      H1893   1.078       .  S
C1889      C1890   1.415   1_556  A
C1890      N1891   1.443       .  S
N1891      O1895   1.263       .  A
N1891      O1896   1.262       .  A
N1894      O1897   1.263       .  A
N1894      O1898   1.263       .  A
C1899      C1900   1.406   1_455  A
C1899      C1904   1.415       .  A
C1899      H1906   1.083       .  S
C1900      C1901   1.414       .  A
C1901      C1902   1.394       .  A
C1901      N1908   1.434       .  S
C1902      C1903   1.403       .  A
C1902      H1907   1.083       .  S
C1903      C1904   1.422   1_655  A
C1904      N1905   1.439       .  S
N1905      O1909   1.263       .  A
N1905      O1910   1.261       .  A
N1908      O1911   1.262       .  A
N1908      O1912   1.263       .  A
C1913      C1914   1.408       .  A
C1913      C1918   1.410       .  A
C1913      H1920   1.084       .  S
C1914      C1915   1.414       .  A
C1915      C1916   1.395       .  A
C1915      N1922   1.432       .  S
C1916      C1917   1.403       .  A
C1916      H1921   1.083       .  S
C1917      C1918   1.416       .  A
C1918      N1919   1.431       .  S
N1919      O1923   1.262       .  A
N1919      O1924   1.262       .  A
N1922      O1925   1.260       .  A
N1922      O1926   1.263       .  A
C1927      C1928   1.406       .  A
C1927      C1932   1.415       .  A
C1927      H1934   1.083       .  S
C1928      C1929   1.414       .  A
C1929      C1930   1.391       .  A
C1929      N1936   1.434       .  S
C1930      C1931   1.402       .  A
C1930      H1935   1.083       .  S
C1931      C1932   1.423       .  A
C1932      N1933   1.441       .  S
N1933      O1937   1.263       .  A
N1933      O1938   1.261       .  A
N1936      O1939   1.262       .  A
N1936      O1940   1.262       .  A
C1941      C1942   1.406   1_655  A
C1941      C1946   1.405       .  A
C1941      H1948   1.083       .  S
C1942      C1943   1.413       .  A
C1943      C1944   1.404       .  A
C1943      N1950   1.433       .  S
C1944      C1945   1.405       .  A
C1944      H1949   1.080       .  S
C1945      C1946   1.416   1_455  A
C1946      N1947   1.438       .  S
N1947      O1951   1.263       .  A
N1947      O1952   1.260       .  A
N1950      O1953   1.262       .  A
N1950      O1954   1.262       .  A
C1955      C1956   1.404   1_655  A
C1955      C1960   1.410       .  A
C1955      H1962   1.082       .  S
C1956      C1957   1.406       .  A
C1957      C1958   1.397       .  A
C1957      N1964   1.428       .  S
C1958      C1959   1.406       .  A
C1958      H1963   1.083       .  S
C1959      C1960   1.419   1_455  A
C1960      N1961   1.438       .  S
N1961      O1965   1.263       .  A
N1961      O1966   1.263       .  A
N1964      O1967   1.262       .  A
N1964      O1968   1.262       .  A
C1969      C1970   1.404       .  A
C1969      C1974   1.399       .  A
C1969      H1976   1.083       .  S
C1970      C1971   1.414       .  A
C1971      C1972   1.407       .  A
C1971      N1978   1.431       .  S
C1972      C1973   1.406       .  A
C1972      H1977   1.082       .  S
C1973      C1974   1.416       .  A
C1974      N1975   1.440       .  S
N1975      O1979   1.263       .  A
N1975      O1980   1.261       .  A
N1978      O1981   1.262       .  A
N1978      O1982   1.262       .  A
C1983      C1984   1.407       .  A
C1983      C1988   1.399       .  A
C1983      H1990   1.083       .  S
C1984      C1985   1.416       .  A
C1985      C1986   1.407       .  A
C1985      N1992   1.438       .  S
C1986      C1987   1.404       .  A
C1986      H1991   1.077       .  S
C1987      C1988   1.407       .  A
C1988      N1989   1.428       .  S
N1989      O1993   1.262       .  A
N1989      O1994   1.262       .  A
N1992      O1995   1.263       .  A
N1992      O1996   1.263       .  A
C1997      C1998   1.406       .  A
C1997      C2002   1.396       .  A
C1997      H2004   1.083       .  S
C1998      C1999   1.416   1_556  A
C1999      C2000   1.410       .  A
C1999      N2006   1.439       .  S
C2000      C2001   1.408   1_554  A
C2000      H2005   1.082       .  S
C2001      C2002   1.411       .  A
C2002      N2003   1.433       .  S
N2003      O2007   1.263       .  A
N2003      O2008   1.261       .  A
N2006      O2009   1.263       .  A
N2006      O2010   1.263       .  A
C2011      C2012   1.401       .  A
C2011      C2016   1.393       .  A
C2011      H2018   1.084       .  S
C2012      C2013   1.418   1_556  A
C2013      C2014   1.416       .  A
C2013      N2020   1.447       .  S
C2014      C2015   1.412   1_554  A
C2014      H2019   1.076       .  S
C2015      C2016   1.416       .  A
C2016      N2017   1.432       .  S
N2017      O2021   1.263       .  A
N2017      O2022   1.261       .  A
N2020      O2023   1.262       .  A
N2020      O2024   1.263       .  A
C2025      C2026   1.404       .  A
C2025      C2030   1.398       .  A
C2025      H2032   1.083       .  S
C2026      C2027   1.413       .  A
C2027      C2028   1.407       .  A
C2027      N2034   1.430       .  S
C2028      C2029   1.407       .  A
C2028      H2033   1.082       .  S
C2029      C2030   1.416       .  A
C2030      N2031   1.439       .  S
N2031      O2035   1.263       .  A
N2031      O2036   1.261       .  A
N2034      O2037   1.262       .  A
N2034      O2038   1.262       .  A
C2039      C2040   1.405       .  A
C2039      C2044   1.411       .  A
C2039      H2046   1.083       .  S
C2040      C2041   1.415   1_455  A
C2041      C2042   1.407       .  A
C2041      N2048   1.436       .  S
C2042      C2043   1.408   1_655  A
C2042      H2047   1.081       .  S
C2043      C2044   1.422       .  A
C2044      N2045   1.441       .  S
N2045      O2049   1.263       .  A
N2045      O2050   1.258       .  A
N2048      O2051   1.263       .  A
N2048      O2052   1.263       .  A
C2053      C2054   1.402   1_655  A
C2053      C2058   1.394       .  A
C2053      H2060   1.084       .  S
C2054      C2055   1.421       .  A
C2055      C2056   1.412       .  A
C2055      N2062   1.438       .  S
C2056      C2057   1.405       .  A
C2056      H2061   1.084       .  S
C2057      C2058   1.415   1_455  A
C2058      N2059   1.433       .  S
N2059      O2063   1.263       .  A
N2059      O2064   1.262       .  A
N2062      O2065   1.261       .  A
N2062      O2066   1.263       .  A
C2067      C2068   1.402       .  A
C2067      C2072   1.394       .  A
C2067      H2074   1.082       .  S
C2068      C2069   1.421       .  A
C2069      C2070   1.412       .  A
C2069      N2076   1.435       .  S
C2070      C2071   1.404       .  A
C2070      H2075   1.083       .  S
C2071      C2072   1.415       .  A
C2072      N2073   1.436       .  S
N2073      O2077   1.262       .  A
N2073      O2078   1.262       .  A
N2076      O2079   1.262       .  A
N2076      O2080   1.263       .  A
C2081      C2082   1.409   1_556  A
C2081      C2086   1.400       .  A
C2081      H2088   1.076       .  S
C2082      C2083   1.418       .  A
C2083      C2084   1.408       .  A
C2083      N2090   1.432       .  S
C2084      C2085   1.406   1_554  A
C2084      H2089   1.083       .  S
C2085      C2086   1.411       .  A
C2086      N2087   1.437       .  S
N2087      O2091   1.263       .  A
N2087      O2092   1.263       .  A
N2090      O2093   1.263       .  A
N2090      O2094   1.260       .  A
C2095      C2096   1.406   1_556  A
C2095      C2100   1.408       .  A
C2095      H2102   1.083       .  S
C2096      C2097   1.417       .  A
C2097      C2098   1.397       .  A
C2097      N2104   1.430       .  S
C2098      C2099   1.401   1_554  A
C2098      H2103   1.083       .  S
C2099      C2100   1.420       .  A
C2100      N2101   1.441       .  S
N2101      O2105   1.263       .  A
N2101      O2106   1.263       .  A
N2104      O2107   1.263       .  A
N2104      O2108   1.262       .  A
C2109      C2110   1.404       .  A
C2109      C2114   1.410       .  A
C2109      H2116   1.083       .  S
C2110      C2111   1.415       .  A
C2111      C2112   1.401       .  A
C2111      N2118   1.436       .  S
C2112      C2113   1.404       .  A
C2112      H2117   1.082       .  S
C2113      C2114   1.423       .  A
C2114      N2115   1.440       .  S
N2115      O2119   1.263       .  A
N2115      O2120   1.258       .  A
N2118      O2121   1.263       .  A
N2118      O2122   1.263       .  A
C2123      C2124   1.402       .  A
C2123      C2128   1.405       .  A
C2123      H2130   1.084       .  S
C2124      C2125   1.418       .  A
C2125      C2126   1.400       .  A
C2125      N2132   1.434       .  S
C2126      C2127   1.403       .  A
C2126      H2131   1.082       .  S
C2127      C2128   1.416       .  A
C2128      N2129   1.426       .  S
N2129      O2133   1.261       .  A
N2129      O2134   1.262       .  A
N2132      O2135   1.263       .  A
N2132      O2136   1.262       .  A
C2137      C2138   1.403       .  A
C2137      C2142   1.405       .  A
C2137      H2144   1.084       .  S
C2138      C2139   1.418       .  A
C2139      C2140   1.398       .  A
C2139      N2146   1.434       .  S
C2140      C2141   1.401       .  A
C2140      H2145   1.082       .  S
C2141      C2142   1.416       .  A
C2142      N2143   1.428       .  S
N2143      O2147   1.262       .  A
N2143      O2148   1.261       .  A
N2146      O2149   1.262       .  A
N2146      O2150   1.263       .  A
C2151      C2152   1.404       .  A
C2151      C2156   1.414       .  A
C2151      H2158   1.083       .  S
C2152      C2153   1.412       .  A
C2153      C2154   1.392       .  A
C2153      N2160   1.434       .  S
C2154      C2155   1.406       .  A
C2154      H2159   1.081       .  S
C2155      C2156   1.425       .  A
C2156      N2157   1.436       .  S
N2157      O2161   1.263       .  A
N2157      O2162   1.260       .  A
N2160      O2163   1.262       .  A
N2160      O2164   1.262       .  A
C2165      C2166   1.406       .  A
C2165      C2170   1.398       .  A
C2165      H2172   1.083       .  S
C2166      C2167   1.414       .  A
C2167      C2168   1.406       .  A
C2167      N2174   1.430       .  S
C2168      C2169   1.406       .  A
C2168      H2173   1.084       .  S
C2169      C2170   1.411       .  A
C2170      N2171   1.436       .  S
N2171      O2175   1.263       .  A
N2171      O2176   1.261       .  A
N2174      O2177   1.262       .  A
N2174      O2178   1.262       .  A
C2179      C2180   1.404       .  A
C2179      C2184   1.411       .  A
C2179      H2186   1.084       .  S
C2180      C2181   1.416       .  A
C2181      C2182   1.395       .  A
C2181      N2188   1.434       .  S
C2182      C2183   1.402       .  A
C2182      H2187   1.082       .  S
C2183      C2184   1.421       .  A
C2184      N2185   1.435       .  S
N2185      O2189   1.263       .  A
N2185      O2190   1.261       .  A
N2188      O2191   1.262       .  A
N2188      O2192   1.263       .  A
C2193      C2194   1.405       .  A
C2193      C2198   1.412       .  A
C2193      H2200   1.084       .  S
C2194      C2195   1.415       .  A
C2195      C2196   1.394       .  A
C2195      N2202   1.433       .  S
C2196      C2197   1.402       .  A
C2196      H2201   1.084       .  S
C2197      C2198   1.422       .  A
C2198      N2199   1.438       .  S
N2199      O2203   1.263       .  A
N2199      O2204   1.261       .  A
N2202      O2205   1.262       .  A
N2202      O2206   1.263       .  A
C2207      C2208   1.405       .  A
C2207      C2212   1.397       .  A
C2207      H2214   1.083       .  S
C2208      C2209   1.418       .  A
C2209      C2210   1.411       .  A
C2209      N2216   1.437       .  S
C2210      C2211   1.408       .  A
C2210      H2215   1.083       .  S
C2211      C2212   1.413       .  A
C2212      N2213   1.434       .  S
N2213      O2217   1.263       .  A
N2213      O2218   1.259       .  A
N2216      O2219   1.262       .  A
N2216      O2220   1.263       .  A
C2221      C2222   1.401       .  A
C2221      C2226   1.397       .  A
C2221      H2228   1.081       .  S
C2222      C2223   1.416       .  A
C2223      C2224   1.406       .  A
C2223      N2230   1.427       .  S
C2224      C2225   1.402       .  A
C2224      H2229   1.084       .  S
C2225      C2226   1.418       .  A
C2226      N2227   1.435       .  S
N2227      O2231   1.262       .  A
N2227      O2232   1.263       .  A
N2230      O2233   1.262       .  A
N2230      O2234   1.261       .  A
C2235      C2236   1.398       .  A
C2235      C2240   1.394       .  A
C2235      H2242   1.085       .  S
C2236      C2237   1.422       .  A
C2237      C2238   1.412       .  A
C2237      N2244   1.440       .  S
C2238      C2239   1.405       .  A
C2238      H2243   1.083       .  S
C2239      C2240   1.417       .  A
C2240      N2241   1.433       .  S
N2241      O2245   1.262       .  A
N2241      O2246   1.262       .  A
N2244      O2247   1.262       .  A
N2244      O2248   1.263       .  A
C2249      C2250   1.406       .  A
C2249      C2254   1.408       .  A
C2249      H2256   1.083       .  S
C2250      C2251   1.415       .  A
C2251      C2252   1.400       .  A
C2251      N2258   1.429       .  S
C2252      C2253   1.403       .  A
C2252      H2257   1.080       .  S
C2253      C2254   1.415       .  A
C2254      N2255   1.434       .  S
N2255      O2259   1.263       .  A
N2255      O2260   1.260       .  A
N2258      O2261   1.262       .  A
N2258      O2262   1.262       .  A
C2263      C2264   1.403       .  A
C2263      C2268   1.399       .  A
C2263      H2270   1.083       .  S
C2264      C2265   1.421       .  A
C2265      C2266   1.413       .  A
C2265      N2272   1.440       .  S
C2266      C2267   1.407       .  A
C2266      H2271   1.083       .  S
C2267      C2268   1.414       .  A
C2268      N2269   1.435       .  S
N2269      O2273   1.263       .  A
N2269      O2274   1.263       .  A
N2272      O2275   1.263       .  A
N2272      O2276   1.260       .  A
C2277      C2278   1.406       .  A
C2277      C2282   1.394       .  A
C2277      H2284   1.082       .  S
C2278      C2279   1.423       .  A
C2279      C2280   1.408       .  A
C2279      N2286   1.430       .  S
C2280      C2281   1.400       .  A
C2280      H2285   1.084       .  S
C2281      C2282   1.413       .  A
C2282      N2283   1.436       .  S
N2283      O2287   1.262       .  A
N2283      O2288   1.262       .  A
N2286      O2289   1.261       .  A
N2286      O2290   1.263       .  A
C2291      C2292   1.400       .  A
C2291      C2296   1.407       .  A
C2291      H2298   1.084       .  S
C2292      C2293   1.415       .  A
C2293      C2294   1.398       .  A
C2293      N2300   1.435       .  S
C2294      C2295   1.408       .  A
C2294      H2299   1.079       .  S
C2295      C2296   1.419       .  A
C2296      N2297   1.424       .  S
N2297      O2301   1.261       .  A
N2297      O2302   1.263       .  A
N2300      O2303   1.263       .  A
N2300      O2304   1.262       .  A
C2305      C2306   1.407       .  A
C2305      C2310   1.410       .  A
C2305      H2312   1.083       .  S
C2306      C2307   1.415       .  A
C2307      C2308   1.402       .  A
C2307      N2314   1.437       .  S
C2308      C2309   1.402       .  A
C2308      H2313   1.080       .  S
C2309      C2310   1.419       .  A
C2310      N2311   1.441       .  S
N2311      O2315   1.260       .  A
N2311      O2316   1.263       .  A
N2314      O2317   1.263       .  A
N2314      O2318   1.263       .  A
C2319      C2320   1.403       .  A
C2319      C2324   1.392       .  A
C2319      H2326   1.084       .  S
C2320      C2321   1.416       .  A
C2321      C2322   1.414       .  A
C2321      N2328   1.442       .  S
C2322      C2323   1.410       .  A
C2322      H2327   1.080       .  S
C2323      C2324   1.412       .  A
C2324      N2325   1.431       .  S
N2325      O2329   1.262       .  A
N2325      O2330   1.261       .  A
N2328      O2331   1.263       .  A
N2328      O2332   1.263       .  A
C2333      C2334   1.405       .  A
C2333      C2338   1.401       .  A
C2333      H2340   1.084       .  S
C2334      C2335   1.420       .  A
C2335      C2336   1.408       .  A
C2335      N2342   1.435       .  S
C2336      C2337   1.404       .  A
C2336      H2341   1.083       .  S
C2337      C2338   1.415       .  A
C2338      N2339   1.431       .  S
N2339      O2343   1.262       .  A
N2339      O2344   1.263       .  A
N2342      O2345   1.259       .  A
N2342      O2346   1.263       .  A
C2347      C2348   1.403       .  A
C2347      C2352   1.397       .  A
C2347      H2354   1.083       .  S
C2348      C2349   1.415       .  A
C2349      C2350   1.409       .  A
C2349      N2356   1.433       .  S
C2350      C2351   1.408       .  A
C2350      H2355   1.083       .  S
C2351      C2352   1.416       .  A
C2352      N2353   1.439       .  S
N2353      O2357   1.263       .  A
N2353      O2358   1.261       .  A
N2356      O2359   1.262       .  A
N2356      O2360   1.262       .  A
C2361      C2362   1.406       .  A
C2361      C2366   1.413       .  A
C2361      H2368   1.083       .  S
C2362      C2363   1.418       .  A
C2363      C2364   1.394       .  A
C2363      N2370   1.434       .  S
C2364      C2365   1.397       .  A
C2364      H2369   1.084       .  S
C2365      C2366   1.422       .  A
C2366      N2367   1.441       .  S
N2367      O2371   1.263       .  A
N2367      O2372   1.262       .  A
N2370      O2373   1.263       .  A
N2370      O2374   1.263       .  A
C2375      C2376   1.406       .  A
C2375      C2380   1.401       .  A
C2375      H2382   1.083       .  S
C2376      C2377   1.413       .  A
C2377      C2378   1.403       .  A
C2377      N2384   1.429       .  S
C2378      C2379   1.406       .  A
C2378      H2383   1.083       .  S
C2379      C2380   1.413       .  A
C2380      N2381   1.436       .  S
N2381      O2385   1.263       .  A
N2381      O2386   1.260       .  A
N2384      O2387   1.262       .  A
N2384      O2388   1.262       .  A
C2389      C2390   1.399       .  A
C2389      C2394   1.407       .  A
C2389      H2396   1.084       .  S
C2390      C2391   1.415       .  A
C2391      C2392   1.399       .  A
C2391      N2398   1.433       .  S
C2392      C2393   1.405       .  A
C2392      H2397   1.082       .  S
C2393      C2394   1.427       .  A
C2394      N2395   1.437       .  S
N2395      O2399   1.263       .  A
N2395      O2400   1.258       .  A
N2398      O2401   1.262       .  A
N2398      O2402   1.263       .  A
C2403      C2404   1.408       .  A
C2403      C2408   1.410       .  A
C2403      H2410   1.082       .  S
C2404      C2405   1.414       .  A
C2405      C2406   1.395       .  A
C2405      N2412   1.439       .  S
C2406      C2407   1.404       .  A
C2406      H2411   1.083       .  S
C2407      C2408   1.414       .  A
C2408      N2409   1.440       .  S
N2409      O2413   1.263       .  A
N2409      O2414   1.263       .  A
N2412      O2415   1.263       .  A
N2412      O2416   1.261       .  A
C2417      C2418   1.416       .  A
C2417      C2422   1.415       .  A
C2417      H2424   1.076       .  S
C2418      C2419   1.424       .  A
C2419      C2420   1.394       .  A
C2419      N2426   1.429       .  S
C2420      C2421   1.398       .  A
C2420      H2425   1.087       .  S
C2421      C2422   1.414       .  A
C2422      N2423   1.448       .  S
N2423      O2427   1.264       .  A
N2423      O2428   1.262       .  A
N2426      O2429   1.261       .  A
N2426      O2430   1.263       .  A
C2431      C2432   1.409       .  A
C2431      C2436   1.412       .  A
C2431      H2438   1.080       .  S
C2432      C2433   1.410       .  A
C2433      C2434   1.397       .  A
C2433      N2440   1.424       .  S
C2434      C2435   1.404       .  A
C2434      H2439   1.083       .  S
C2435      C2436   1.416       .  A
C2436      N2437   1.438       .  S
N2437      O2441   1.263       .  A
N2437      O2442   1.263       .  A
N2440      O2443   1.262       .  A
N2440      O2444   1.262       .  A
C2445      C2446   1.402       .  A
C2445      C2450   1.408       .  A
C2445      H2452   1.084       .  S
C2446      C2447   1.416       .  A
C2447      C2448   1.395       .  A
C2447      N2454   1.434       .  S
C2448      C2449   1.402       .  A
C2448      H2453   1.084       .  S
C2449      C2450   1.421       .  A
C2450      N2451   1.433       .  S
N2451      O2455   1.263       .  A
N2451      O2456   1.260       .  A
N2454      O2457   1.262       .  A
N2454      O2458   1.263       .  A
C2459      C2460   1.400       .  A
C2459      C2464   1.393       .  A
C2459      H2466   1.084       .  S
C2460      C2461   1.420       .  A
C2461      C2462   1.408       .  A
C2461      N2468   1.436       .  S
C2462      C2463   1.404       .  A
C2462      H2467   1.084       .  S
C2463      C2464   1.416       .  A
C2464      N2465   1.432       .  S
N2465      O2469   1.263       .  A
N2465      O2470   1.262       .  A
N2468      O2471   1.261       .  A
N2468      O2472   1.263       .  A
