geometry optimzed in LAMMPS
_audit_creation_date              2020-12-01 
_audit_creation_method            'lammps2cif' 
_symmetry_space_group_name_H-M    'P1' 
_symmetry_Int_Tables_number       1 
_symmetry_cell_setting            triclinic 
loop_ 
_symmetry_equiv_pos_as_xyz 
  x,y,z 
_cell_length_a                    36.43451169 
_cell_length_b                    36.45910340338522 
_cell_length_c                    38.31625782593127 
_cell_angle_alpha                 92.44488558897332 
_cell_angle_beta                  90.01179739923788 
_cell_angle_gamma                 90.21980207764629 
loop_ 
_atom_site_label 
_atom_site_type_symbol 
_atom_site_fract_x 
_atom_site_fract_y 
_atom_site_fract_z 
_atom_site_charge 
C1          C  0.20429515  0.21630476  0.21021677     0.86800
C2          C  0.22921133  0.19139097  0.23173776    -0.53500
C3          C  0.25050410  0.20981011  0.25593618     0.09700
C4          C  0.24580782  0.25168880  0.25637636     0.20700
C5          C  0.18311986  0.23939462  0.23766354    -0.54200
C6          C  0.20414581  0.25822248  0.26213422     0.09800
C7          C  0.23184988  0.24302550  0.19434522    -0.53700
C8          C  0.25324501  0.26204043  0.21833031     0.10400
H9          H  0.23198331  0.16200584  0.22780992     0.14900
H10         H  0.26440311  0.26554670  0.27542922     0.00600
H11         H  0.15339348  0.24115229  0.23690471     0.15200
H12         H  0.23443063  0.24639748  0.16641899     0.15000
C13         C  0.09691949  0.44784847  0.42478786     0.30300
C14         C  0.10045444  0.51232551  0.46538946     0.30300
C15         C  0.11457604  0.48100747  0.40754098    -0.05900
C16         C  0.05980633  0.46375608  0.43787787    -0.06700
C17         C  0.12011326  0.44703843  0.45877211    -0.06600
C18         C  0.11499558  0.51391419  0.42754732    -0.05900
C19         C  0.06152380  0.49671220  0.45822109    -0.06700
C20         C  0.12074711  0.47944606  0.47912835    -0.06600
C21         C  0.12660081  0.54089807  0.40584571    -0.31900
N22         N  0.13554921  0.52490129  0.37453324     0.14600
C23         C  0.12931642  0.48835477  0.37541525    -0.32000
H24         H  0.13479729  0.46897694  0.35394640     0.16500
C25         C  0.02583657  0.50847862  0.46308248    -0.30900
N26         N  0.00277172  0.48352680  0.44715316     0.13300
C27         C  0.02312276  0.45627699  0.43149462    -0.30900
C28         C  0.14134929  0.47395240  0.50846955    -0.31200
N29         N  0.15479485  0.43949338  0.50616324     0.13800
H30         H  0.14527792  0.49317425  0.53050165     0.16400
C31         C  0.14294450  0.42313935  0.47573888    -0.31200
H32         H  0.15091542  0.39567768  0.46727930     0.16400
H33         H  0.01223386  0.43332932  0.41589158     0.16400
H34         H  0.12790996  0.57013123  0.41195132     0.16500
H35         H  0.01736942  0.53393468  0.47605444     0.16400
C36         C  0.20183198  0.75541643  0.68314908     0.86800
C37         C  0.22512633  0.77746278  0.65804423    -0.53500
C38         C  0.24843092  0.75703351  0.63733240     0.09700
C39         C  0.24612084  0.71535974  0.64337011     0.20700
C40         C  0.18216851  0.72650865  0.65892035    -0.54200
C41         C  0.20505257  0.70557758  0.63794762     0.09800
C42         C  0.22918167  0.73231818  0.70334397    -0.53700
C43         C  0.25251225  0.71144386  0.68301536     0.10400
H44         H  0.22348235  0.80712435  0.65700558     0.14900
H45         H  0.26546547  0.69906814  0.62680646     0.00600
H46         H  0.15287814  0.72167081  0.65812472     0.15200
H47         H  0.23023905  0.73278617  0.73169345     0.15000
C48         C  0.44245224  0.09157060  0.40835784     0.30300
C49         C  0.49644894  0.09343397  0.45908259     0.30300
C50         C  0.43569486  0.11674233  0.44109723    -0.05900
C51         C  0.45026206  0.05371162  0.42611787    -0.06700
C52         C  0.48166275  0.10259071  0.39693661    -0.06600
C53         C  0.46281045  0.11750366  0.46678843    -0.05900
C54         C  0.47738694  0.05603341  0.45266811    -0.06700
C55         C  0.50833288  0.10413208  0.42265369    -0.06600
C56         C  0.44539513  0.12677561  0.49793079    -0.31900
N57         N  0.40997411  0.13443469  0.49152993     0.14600
C58         C  0.40328196  0.12763321  0.45722465    -0.32000
H59         H  0.37634028  0.12809455  0.44535020     0.16500
C60         C  0.48034443  0.02252618  0.46761158    -0.30900
N61         N  0.45763845  0.99863974  0.45056235     0.13300
C62         C  0.44017141  0.01643843  0.42483936    -0.30900
C63         C  0.53898369  0.12092151  0.40915778    -0.31200
N64         N  0.53182070  0.12959803  0.37575861     0.13800
H65         H  0.56377424  0.12849140  0.42335158     0.16400
C66         C  0.49719320  0.11790868  0.36781979    -0.31200
H67         H  0.48357062  0.12195670  0.34318457     0.16400
H68         H  0.42324633  0.00183214  0.40599502     0.16400
H69         H  0.45702275  0.12608120  0.52388940     0.16500
H70         H  0.49896925  0.01541280  0.48820127     0.16400
C71         C  0.75425723  0.25606674  0.17930723     0.86800
C72         C  0.77802775  0.28279071  0.20204016    -0.53500
C73         C  0.75861937  0.30862143  0.22090337     0.09700
C74         C  0.71656674  0.30577472  0.21514786     0.20700
C75         C  0.72696139  0.24020436  0.20493709    -0.54200
C76         C  0.70680387  0.26557433  0.22353693     0.09800
C77         C  0.73198841  0.28166081  0.15682606    -0.53700
C78         C  0.71149009  0.30748276  0.17481080     0.10400
H79         H  0.80763079  0.28262217  0.20358868     0.14900
H80         H  0.70146514  0.32673717  0.23097150     0.00600
H81         H  0.72331062  0.21085147  0.20763474     0.15200
H82         H  0.73178676  0.27856452  0.12851128     0.15000
C83         C  0.22670558  0.23808154  0.73911093     0.86800
C84         C  0.21098666  0.26979593  0.71774812    -0.53500
C85         C  0.23729273  0.29232856  0.70456224     0.09700
C86         C  0.27656580  0.28095047  0.71328220     0.20700
C87         C  0.25268452  0.21871842  0.71298057    -0.54200
C88         C  0.27868520  0.24080572  0.69926394     0.09800
C89         C  0.25114538  0.25747931  0.76673174    -0.53700
C90         C  0.27693241  0.27998541  0.75341602     0.10400
H91         H  0.18264720  0.27248865  0.71008657     0.14900
H92         H  0.29772603  0.29926846  0.70245387     0.00600
H93         H  0.24880990  0.19031966  0.70386441     0.15200
H94         H  0.24768906  0.25440528  0.79463591     0.15000
C95         C  0.87033684  0.51199302  0.47932480     0.30300
C96         C  0.86539396  0.46999679  0.41766290     0.30300
C97         C  0.84964852  0.52931041  0.44893437    -0.05900
C98         C  0.90713512  0.50088529  0.46187490    -0.06700
C99         C  0.85024952  0.47471772  0.48115420    -0.06600
C100        C  0.84853464  0.50837960  0.41775534    -0.05900
C101        C  0.90516772  0.47906190  0.43054573    -0.06700
C102        C  0.84957959  0.45322274  0.45031907    -0.06600
C103        C  0.83204782  0.52897745  0.39300275    -0.31900
N104        N  0.82220700  0.56146148  0.40846931     0.14600
C105        C  0.83169705  0.56179158  0.44259596    -0.32000
H106        H  0.82633547  0.58466366  0.46070384     0.16500
C107        C  0.94122755  0.46997150  0.42212956    -0.30900
N108        N  0.96403438  0.48629545  0.44640617     0.13300
C109        C  0.94354174  0.50513076  0.47065851    -0.30900
C110        C  0.83529094  0.41946378  0.45754899    -0.31200
N111        N  0.82588945  0.42023823  0.49161298     0.13800
H112        H  0.83285913  0.39578134  0.43971503     0.16400
C113        C  0.83346598  0.45402274  0.50606152    -0.31200
H114        H  0.82763551  0.46218201  0.53283991     0.16400
H115        H  0.95421258  0.51968635  0.49368916     0.16400
H116        H  0.82835652  0.52140987  0.36558695     0.16500
H117        H  0.95057107  0.45233272  0.40063652     0.16400
C118        C  0.74579540  0.80195786  0.21251943     0.86800
C119        C  0.72027528  0.82743706  0.23484688    -0.53500
C120        C  0.69386005  0.80899349  0.25228853     0.09700
C121        C  0.69485789  0.76710672  0.24601387     0.20700
C122        C  0.76057367  0.77484705  0.23866350    -0.54200
C123        C  0.73402428  0.75629576  0.25566866     0.09800
C124        C  0.71888247  0.77983628  0.18871190    -0.53700
C125        C  0.69267920  0.76106096  0.20612493     0.10400
H126        H  0.72213780  0.85700577  0.23762192     0.14900
H127        H  0.67360142  0.75215152  0.26064116     0.00600
H128        H  0.78964469  0.77036280  0.24299855     0.15200
H129        H  0.72140963  0.77784228  0.16045603     0.15000
C130        C  0.73832203  0.16914236  0.67868698     0.86800
C131        C  0.71448158  0.14647952  0.65283576    -0.53500
C132        C  0.69144440  0.16684825  0.63358768     0.09700
C133        C  0.69363257  0.20843903  0.64228344     0.20700
C134        C  0.75767079  0.19773193  0.65609515    -0.54200
C135        C  0.73426164  0.21825103  0.63720897     0.09800
C136        C  0.71150141  0.19286490  0.70088532    -0.53700
C137        C  0.68755506  0.21290795  0.68207006     0.10400
H138        H  0.71601132  0.11676674  0.64974757     0.14900
H139        H  0.67454237  0.22477339  0.62668027     0.00600
H140        H  0.78689048  0.20314036  0.65570023     0.15200
H141        H  0.71197365  0.19425685  0.72922926     0.15000
C142        C  0.44401241  0.86270873  0.47974826     0.30300
C143        C  0.50003055  0.86642212  0.43144850     0.30300
C144        C  0.43782705  0.84272397  0.44415847    -0.05900
C145        C  0.45465481  0.90234834  0.46877126    -0.06700
C146        C  0.48225557  0.84867118  0.49108877    -0.06600
C147        C  0.46548973  0.84551284  0.41970728    -0.05900
C148        C  0.48279167  0.90383104  0.44333778    -0.06700
C149        C  0.51002390  0.85006067  0.46639139    -0.06600
C150        C  0.45211280  0.83149716  0.38832109    -0.31900
N151        N  0.41736535  0.81946555  0.39326729     0.14600
C152        C  0.40834549  0.82596580  0.42733446    -0.32000
H153        H  0.38212497  0.81969820  0.43889598     0.16500
C154        C  0.48445501  0.93964141  0.43286010    -0.30900
N155        N  0.46064694  0.96017386  0.45228067     0.13300
C156        C  0.44278325  0.93836176  0.47477097    -0.30900
C157        C  0.54127867  0.83552072  0.48072791    -0.31200
N158        N  0.53367949  0.82626494  0.51387901     0.13800
H159        H  0.56752618  0.83155146  0.46786581     0.16400
C160        C  0.49808805  0.83480122  0.52072680    -0.31200
H161        H  0.48472282  0.83053391  0.54546636     0.16400
H162        H  0.42230835  0.94790832  0.49336599     0.16400
H163        H  0.46613383  0.83109362  0.36341103     0.16500
H164        H  0.50045345  0.95046598  0.41195158     0.16400
C165        C  0.22162247  0.73190728  0.14456112     0.86800
C166        C  0.20090666  0.70370254  0.16658896    -0.53500
C167        C  0.22334086  0.68009224  0.18305693     0.09700
C168        C  0.26418375  0.68557781  0.17548263     0.20700
C169        C  0.24851247  0.74992097  0.17126338    -0.54200
C170        C  0.27119990  0.72586117  0.18693384     0.09800
C171        C  0.24523053  0.70806589  0.11932889    -0.53700
C172        C  0.26751197  0.68402112  0.13541857     0.10400
H173        H  0.17181302  0.70351431  0.17200853     0.14900
H174        H  0.28228614  0.66596914  0.18865035     0.00600
H175        H  0.24796426  0.77898385  0.17859406     0.15200
H176        H  0.24425288  0.70993891  0.09114414     0.15000
C177        C  0.75791229  0.71719784  0.71602384     0.86800
C178        C  0.78217262  0.69137948  0.69340935    -0.53500
C179        C  0.76383690  0.66316787  0.67626359     0.09700
C180        C  0.72176069  0.66417872  0.68256289     0.20700
C181        C  0.72859350  0.73038827  0.69038789    -0.54200
C182        C  0.70985512  0.70308915  0.67259698     0.09800
C183        C  0.73592584  0.69243690  0.73978571    -0.53700
C184        C  0.71741304  0.66435867  0.72287958     0.10400
H185        H  0.81155816  0.69563986  0.69079954     0.14900
H186        H  0.70632558  0.64186221  0.66838710     0.00600
H187        H  0.72155152  0.75864198  0.68642914     0.15200
H188        H  0.73486498  0.69705412  0.76796767     0.15000
C189        C  0.52352934  0.45901276  0.05844678     0.30300
C190        C  0.46383940  0.50550005  0.05948573     0.30300
C191        C  0.52875098  0.49683598  0.07784655    -0.05900
C192        C  0.50904242  0.47014476  0.02212173    -0.06700
C193        C  0.48819333  0.44496679  0.07668253    -0.06600
C194        C  0.49918281  0.52067920  0.07638895    -0.05900
C195        C  0.47857711  0.49390329  0.02259940    -0.06700
C196        C  0.45823824  0.46843160  0.07621753    -0.06600
C197        C  0.51014860  0.55414711  0.09076989    -0.31900
N198        N  0.54483537  0.55092034  0.10272338     0.14600
C199        C  0.55610015  0.51588758  0.09619827    -0.32000
H200        H  0.58251418  0.50555423  0.10391278     0.16500
C201        C  0.47351609  0.50423257  0.98845581    -0.30900
N202        N  0.49898114  0.48731084  0.96765426     0.13300
C203        C  0.52074090  0.46631879  0.98762732    -0.30900
C204        C  0.43027691  0.45317724  0.09512959    -0.31200
N205        N  0.44238583  0.42158471  0.10840064     0.13800
H206        H  0.40337519  0.46487134  0.09992482     0.16400
C207        C  0.47762159  0.41627630  0.09758959    -0.31200
H208        H  0.49447783  0.39390476  0.10583627     0.16400
H209        H  0.54342235  0.44981526  0.97788173     0.16400
H210        H  0.49412753  0.57910423  0.09243069     0.16500
H211        H  0.45388924  0.52351102  0.97898679     0.16400
C212        C  0.52203838  0.50883222  0.83658883     0.30300
C213        C  0.46071564  0.46449748  0.84118239     0.30300
C214        C  0.52292152  0.47163904  0.81631656    -0.05900
C215        C  0.51161239  0.49731520  0.87456858    -0.06700
C216        C  0.48495294  0.52558719  0.82513006    -0.06600
C217        C  0.49216226  0.44970189  0.81842331    -0.05900
C218        C  0.47995428  0.47484644  0.87622679    -0.06700
C219        C  0.45402785  0.50333361  0.82751749    -0.06600
C220        C  0.50020906  0.41631623  0.80197229    -0.31900
N221        N  0.53545050  0.41719411  0.79065839     0.14600
C222        C  0.54955402  0.45095205  0.79904781    -0.32000
H223        H  0.57770629  0.45911599  0.79465301     0.16500
C224        C  0.47212148  0.46986099  0.91090600    -0.30900
N225        N  0.49837820  0.48676807  0.93071254     0.13300
C226        C  0.52181359  0.50466032  0.90943679    -0.30900
C227        C  0.42443116  0.52388637  0.81671730    -0.31200
N228        N  0.43675089  0.55661502  0.80581617     0.13800
H229        H  0.39589492  0.51567084  0.81585913     0.16400
C230        C  0.47340336  0.55852298  0.81180573    -0.31200
H231        H  0.49053761  0.58166708  0.80559703     0.16400
H232        H  0.54338585  0.52282108  0.91894681     0.16400
H233        H  0.48221332  0.39266473  0.79963137     0.16500
H234        H  0.44871054  0.45552660  0.92117461     0.16400
N235        N  0.02073958  0.06271190  0.98115880    -0.05800
N236        N  0.02725371  0.08913128  0.00505253    -0.57900
N237        N  0.04530564  0.03030180  0.90201725    -0.05500
N238        N  0.07022053  0.03658813  0.87794309    -0.60100
N239        N  0.01921155  0.05502892  0.90133498    -0.05100
N240        N  0.02566264  0.07840452  0.87683485    -0.57900
N241        N  0.04632582  0.03735030  0.98202399    -0.04800
N242        N  0.07074403  0.04603173  0.00648886    -0.60400
C243        C  0.05868013  0.07851509  0.02044609     0.96400
C244        C  0.05741775  0.06658307  0.86229411     0.96100
N245        N  0.01992792  0.91815133  0.90653208    -0.06000
N246        N  0.02514424  0.89263607  0.88145161    -0.58500
N247        N  0.04731947  0.95059957  0.98510265    -0.04100
N248        N  0.07346046  0.94442072  0.00797022    -0.59800
N249        N  0.02156951  0.92538143  0.98659080    -0.06000
N250        N  0.02953682  0.90179081  0.01052652    -0.58800
N251        N  0.04520575  0.94393548  0.90500180    -0.03800
N252        N  0.06794308  0.93662552  0.87882510    -0.59900
Mn253      Mn  0.04718620  0.99054848  0.94357801     1.18400
C254        C  0.05486016  0.90484825  0.86404247     0.98400
C255        C  0.06176299  0.91413824  0.02399862     0.99100
N256        N  0.93313969  0.05380718  0.90157990    -0.06100
N257        N  0.92757818  0.07286721  0.87348997    -0.62400
N258        N  0.90883711  0.03767988  0.98332662    -0.04900
N259        N  0.88352826  0.04805162  0.00625888    -0.63000
N260        N  0.93428956  0.06309899  0.98134045    -0.05600
N261        N  0.92687398  0.09128340  0.00277869    -0.62600
N262        N  0.90814949  0.02788034  0.90364775    -0.04500
N263        N  0.88536773  0.02838739  0.87700942    -0.63300
Mn264      Mn  0.97687259  0.05972708  0.94134943     1.10700
C265        C  0.89797762  0.05624654  0.85823584     0.99700
C266        C  0.89517142  0.08157172  0.01817403     0.99700
N267        N  0.93551827  0.92635894  0.98955479    -0.05600
N268        N  0.93056116  0.90630245  0.01711475    -0.60900
N269        N  0.90736994  0.94308130  0.90900327    -0.04900
N270        N  0.88271633  0.93470403  0.88469336    -0.57700
N271        N  0.93324999  0.91810625  0.90910534    -0.06200
N272        N  0.92693196  0.89229431  0.88469005    -0.60500
N273        N  0.91041359  0.95211639  0.98874776    -0.05200
N274        N  0.88800452  0.95017790  0.01552871    -0.57700
Mn275      Mn  0.97748263  0.92076171  0.94797434     1.20200
Mn276      Mn  0.90761583  0.99012817  0.94635637     1.10100
Cl277      Cl  0.97734958  0.99028444  0.94486542    -0.85700
C278        C  0.90064314  0.92143741  0.03299279     0.96700
C279        C  0.89561881  0.90325421  0.86940532     0.96500
C280        C  0.82049524  0.76601068  0.78533769    -0.22200
C281        C  0.81487764  0.80287540  0.77866967     0.09800
C282        C  0.79371051  0.81228906  0.74983446     0.10200
C283        C  0.77680864  0.78438970  0.72923959    -0.17100
C284        C  0.78005982  0.74684573  0.73685261    -0.27500
C285        C  0.80414962  0.73784377  0.76466412     0.18500
C286        C  0.83404539  0.83092605  0.80076089     0.12500
C287        C  0.78965957  0.85180030  0.74030685    -0.11900
H288        H  0.76199412  0.79285959  0.70676601     0.12800
C289        C  0.81404887  0.69927041  0.77393093    -0.22700
H290        H  0.83822402  0.75912266  0.80686071     0.08400
C291        C  0.81677123  0.84887355  0.82963309     0.04800
C292        C  0.83713850  0.87380496  0.85081639    -0.19900
C293        C  0.87455165  0.87989968  0.84435809    -0.12200
C294        C  0.89159278  0.86221205  0.81516885     0.13500
C295        C  0.87096224  0.83808591  0.79353157    -0.22700
C296        C  0.77745759  0.84063512  0.83884001    -0.05700
H297        H  0.82428076  0.88731935  0.87335524     0.15000
C298        C  0.93130040  0.86909057  0.80642150    -0.15900
H299        H  0.88382399  0.82409341  0.77120339     0.09300
H300        H  0.80541701  0.69462273  0.80118415     0.07200
H301        H  0.84426561  0.69575995  0.77202746     0.08400
H302        H  0.80152428  0.67757637  0.75701251     0.07400
H303        H  0.81709393  0.86364696  0.73494825     0.02300
H304        H  0.77667469  0.86804065  0.76206188     0.02800
H305        H  0.77237602  0.85450040  0.71668550     0.06300
H306        H  0.76849346  0.85667249  0.86260738     0.05300
H307        H  0.77443059  0.81101315  0.84387637    -0.00500
H308        H  0.75900666  0.84751044  0.81707998     0.01000
H309        H  0.94930302  0.85929277  0.82740220     0.04600
H310        H  0.93592672  0.89891035  0.80341314     0.06600
H311        H  0.93946544  0.85441833  0.78164724     0.07400
C312        C  0.66670814  0.58032165  0.75611090    -0.22200
C313        C  0.64199919  0.59708639  0.77988134     0.09800
C314        C  0.64303614  0.63548197  0.78564118     0.10200
C315        C  0.66805464  0.65635093  0.76682906    -0.17100
C316        C  0.69249573  0.63982603  0.74242567    -0.27500
C317        C  0.69235739  0.60106380  0.73773598     0.18500
C318        C  0.61247919  0.57454477  0.79524160     0.12500
C319        C  0.61706726  0.65445991  0.81103278    -0.11900
H320        H  0.66791915  0.68598175  0.77064017     0.12800
C321        C  0.71943150  0.58040371  0.71472257    -0.22700
H322        H  0.66581707  0.55073657  0.75173528     0.08400
C323        C  0.58086146  0.56565358  0.77573816     0.04800
C324        C  0.55361719  0.54406443  0.79033963    -0.19900
C325        C  0.55539285  0.53200571  0.82500853    -0.12200
C326        C  0.58935845  0.53766181  0.84291177     0.13500
C327        C  0.61653546  0.56044576  0.82855665    -0.22700
C328        C  0.57572421  0.57901059  0.73931550    -0.05700
H329        H  0.53049692  0.53608977  0.77390211     0.15000
C330        C  0.60073900  0.51627530  0.87369700    -0.15900
H331        H  0.64203822  0.56551123  0.84257276     0.09300
H332        H  0.70474636  0.56635608  0.69252659     0.07200
H333        H  0.73349662  0.55946822  0.73008615     0.08400
H334        H  0.74111026  0.59816993  0.70437513     0.07400
H335        H  0.62136443  0.64406814  0.83754076     0.02300
H336        H  0.58827609  0.64895633  0.80282458     0.02800
H337        H  0.62142050  0.68465798  0.81245931     0.06300
H338        H  0.54899898  0.57001147  0.72784460     0.05300
H339        H  0.59785254  0.56807826  0.72195333    -0.00500
H340        H  0.57656675  0.60947952  0.73996197     0.01000
H341        H  0.62889297  0.50539376  0.86938532     0.04600
H342        H  0.58337021  0.49177422  0.87688654     0.06600
H343        H  0.60115701  0.53445284  0.89767009     0.07400
C344        C  0.12438210  0.83432907  0.04039751    -0.22200
C345        C  0.13275876  0.84098310  0.07574862     0.09800
C346        C  0.11926779  0.87269387  0.09373730     0.10200
C347        C  0.09656533  0.89674431  0.07603579    -0.17100
C348        C  0.08723697  0.88944315  0.04096580    -0.27500
C349        C  0.10171599  0.85825604  0.02268434     0.18500
C350        C  0.15474785  0.81353112  0.09356287     0.12500
C351        C  0.12868463  0.88088812  0.13154198    -0.11900
H352        H  0.08557041  0.92090792  0.08968897     0.12800
C353        C  0.09361650  0.85033453  0.98448847    -0.22700
H354        H  0.13521398  0.80999753  0.02683193     0.08400
C355        C  0.13793858  0.78379638  0.10940043     0.04800
C356        C  0.15983053  0.75759785  0.12500210    -0.19900
C357        C  0.19858585  0.76031113  0.12567513    -0.12200
C358        C  0.21515767  0.79004194  0.10812910     0.13500
C359        C  0.19291039  0.81625880  0.09284897    -0.22700
C360        C  0.09673359  0.77950153  0.10943344    -0.05700
H361        H  0.14572965  0.73468451  0.13566224     0.15000
C362        C  0.25600466  0.79573889  0.10423388    -0.15900
H363        H  0.20550229  0.83893234  0.07978946     0.09300
H364        H  0.06380947  0.84539238  0.98058868     0.07200
H365        H  0.10837150  0.82558195  0.97413710     0.08400
H366        H  0.10237371  0.87397714  0.96911322     0.07400
H367        H  0.15889603  0.88363488  0.13448565     0.02300
H368        H  0.11883111  0.85828411  0.14768021     0.02800
H369        H  0.11587136  0.90681792  0.14163297     0.06300
H370        H  0.08783972  0.75467625  0.12302936     0.05300
H371        H  0.08646336  0.77704831  0.08215553    -0.00500
H372        H  0.08393488  0.80375666  0.12294487     0.01000
H373        H  0.26295771  0.79685486  0.07608524     0.04600
H374        H  0.27298934  0.77399643  0.11483199     0.06600
H375        H  0.26409218  0.82218145  0.11757781     0.07400
C376        C  0.34663650  0.64205700  0.08256447    -0.22200
C377        C  0.33962123  0.60456372  0.08587725     0.09800
C378        C  0.30751397  0.59339116  0.10313262     0.10200
C379        C  0.28364367  0.62011031  0.11749983    -0.17100
C380        C  0.29169399  0.65764744  0.11603330    -0.27500
C381        C  0.32331403  0.66881310  0.09774993     0.18500
C382        C  0.36967596  0.57834920  0.07776078     0.12500
C383        C  0.29916860  0.55333287  0.10746733    -0.11900
H384        H  0.25900441  0.61164417  0.13067592     0.12800
C385        C  0.33453904  0.70839664  0.09530275    -0.22700
H386        H  0.37171910  0.65050868  0.06991964     0.08400
C387        C  0.37525944  0.56142368  0.04450237     0.04800
C388        C  0.40545748  0.53777751  0.03905044    -0.19900
C389        C  0.43046607  0.53074822  0.06607184    -0.12200
C390        C  0.42192369  0.54548649  0.10045260     0.13500
C391        C  0.39288900  0.57007789  0.10511905    -0.22700
C392        C  0.34898907  0.56786416  0.01510369    -0.05700
H393        H  0.40803468  0.52351181  0.01402954     0.15000
C394        C  0.44116416  0.53585236  0.13386008    -0.15900
H395        H  0.38749156  0.58226014  0.13096502     0.09300
H396        H  0.33540024  0.71561344  0.06746295     0.07200
H397        H  0.36226724  0.71256237  0.10687177     0.08400
H398        H  0.31569657  0.72753337  0.10929088     0.07400
H399        H  0.32126490  0.54066007  0.12279301     0.02300
H400        H  0.29721756  0.53890075  0.08144148     0.02800
H401        H  0.27280618  0.54938631  0.12141074     0.06300
H402        H  0.35706576  0.55241369  0.99071362     0.05300
H403        H  0.34840301  0.59753099  0.00974098    -0.00500
H404        H  0.32099432  0.55883422  0.02242319     0.01000
H405        H  0.45470604  0.56072388  0.14571907     0.04600
H406        H  0.46178872  0.51392290  0.13099537     0.06600
H407        H  0.42049216  0.52616718  0.15268527     0.07400
C408        C  0.59154388  0.79964662  0.59041068    -0.22200
C409        C  0.60411661  0.76489782  0.57874073     0.09800
C410        C  0.59263210  0.75030692  0.54581255     0.10200
C411        C  0.56978551  0.77127638  0.52481906    -0.17100
C412        C  0.55764721  0.80630879  0.53620102    -0.27500
C413        C  0.56852835  0.82057001  0.56955920     0.18500
C414        C  0.63149485  0.74566155  0.60026499     0.12500
C415        C  0.60462291  0.71267076  0.53288647    -0.11900
H416        H  0.56100309  0.76025657  0.49946030     0.12800
C417        C  0.55752227  0.85820800  0.58338374    -0.22700
H418        H  0.60056550  0.81094243  0.61563247     0.08400
C419        C  0.66922166  0.75388082  0.59789106     0.04800
C420        C  0.69415255  0.73698070  0.61999490    -0.19900
C421        C  0.68242074  0.71269902  0.64538470    -0.12200
C422        C  0.64452490  0.70376873  0.64712966     0.13500
C423        C  0.61968938  0.72005237  0.62421783    -0.22700
C424        C  0.68306596  0.78131090  0.57261726    -0.05700
H425        H  0.72302033  0.74408669  0.61856179     0.15000
C426        C  0.62869786  0.67904482  0.67379558    -0.15900
H427        H  0.59064199  0.71377829  0.62596803     0.09300
H428        H  0.58251174  0.87463183  0.58990311     0.07200
H429        H  0.54084284  0.85570911  0.60742285     0.08400
H430        H  0.54146863  0.87359615  0.56434892     0.07400
H431        H  0.59502072  0.69192146  0.55125602     0.02300
H432        H  0.63501494  0.71167238  0.53115147     0.02800
H433        H  0.59318415  0.70530130  0.50663960     0.06300
H434        H  0.71334436  0.78463247  0.57407182     0.05300
H435        H  0.67046845  0.80853294  0.57865890    -0.00500
H436        H  0.67576078  0.77206219  0.54551782     0.01000
H437        H  0.60805916  0.69436379  0.68991874     0.04600
H438        H  0.64944366  0.66861353  0.69166468     0.06600
H439        H  0.61507770  0.65512146  0.66029831     0.07400
C440        C  0.34057733  0.80292891  0.32900177    -0.22200
C441        C  0.35468233  0.77332951  0.30875811     0.09800
C442        C  0.38895341  0.75829239  0.31725495     0.10200
C443        C  0.40850558  0.77332782  0.34597368    -0.17100
C444        C  0.39458801  0.80306670  0.36624837    -0.27500
C445        C  0.36023692  0.81817825  0.35764157     0.18500
C446        C  0.33399003  0.75984820  0.27759680     0.12500
C447        C  0.40505531  0.72681039  0.29569239    -0.11900
H448        H  0.43507652  0.76228263  0.35247392     0.12800
C449        C  0.34517859  0.85149008  0.37726956    -0.22700
H450        H  0.31442579  0.81454624  0.32187935     0.08400
C451        C  0.30660767  0.73263454  0.27967069     0.04800
C452        C  0.28759352  0.72111250  0.24930050    -0.19900
C453        C  0.29463900  0.73697638  0.21721105    -0.12200
C454        C  0.32253578  0.76385483  0.21511500     0.13500
C455        C  0.34193794  0.77491713  0.24542550    -0.22700
C456        C  0.29718897  0.71617310  0.31395069    -0.05700
H457        H  0.26651127  0.70029636  0.25082136     0.15000
C458        C  0.33281498  0.78003731  0.18092900    -0.15900
H459        H  0.36334778  0.79555505  0.24414598     0.09300
H460        H  0.33831918  0.84478412  0.40443579     0.07200
H461        H  0.31965800  0.86146239  0.36503284     0.08400
H462        H  0.36567903  0.87411963  0.37750415     0.07400
H463        H  0.40891911  0.73496618  0.26834587     0.02300
H464        H  0.38629045  0.70276763  0.29593046     0.02800
H465        H  0.43213134  0.71840364  0.30594261     0.06300
H466        H  0.27496779  0.69532196  0.31095135     0.05300
H467        H  0.28777073  0.73807786  0.33285284    -0.00500
H468        H  0.32174457  0.70267970  0.32467788     0.01000
H469        H  0.30951572  0.79558558  0.17045031     0.04600
H470        H  0.34075531  0.75773135  0.16187960     0.06600
H471        H  0.35641646  0.79928791  0.18394096     0.07400
C472        C  0.84415324  0.05912432  0.77375713    -0.22200
C473        C  0.83518058  0.09640674  0.77375805     0.09800
C474        C  0.84843339  0.12076876  0.80049422     0.10200
C475        C  0.87051019  0.10719212  0.82692174    -0.17100
C476        C  0.87844960  0.06966401  0.82771711    -0.27500
C477        C  0.86550736  0.04531751  0.80065284     0.18500
C478        C  0.81081950  0.10957841  0.74627259     0.12500
C479        C  0.83827396  0.16084387  0.80165837    -0.11900
H480        H  0.88026455  0.12565353  0.84785989     0.12800
C481        C  0.87462014  0.00496501  0.79971012    -0.22700
H482        H  0.83389185  0.04075980  0.75294915     0.08400
C483        C  0.82498549  0.12557078  0.71640531     0.04800
C484        C  0.80096803  0.14285403  0.69383729    -0.19900
C485        C  0.76287689  0.14486882  0.70054712    -0.12200
C486        C  0.74857263  0.12381272  0.72808126     0.13500
C487        C  0.77290295  0.10763244  0.75116474    -0.22700
C488        C  0.86551199  0.12456418  0.70855323    -0.05700
H489        H  0.81255621  0.15435066  0.67083699     0.15000
C490        C  0.70817880  0.11750082  0.73457160    -0.15900
H491        H  0.76221034  0.09367981  0.77347815     0.09300
H492        H  0.86407472  0.99053296  0.77561576     0.07200
H493        H  0.86201348  0.99169687  0.82232538     0.08400
H494        H  0.90485794  0.00133926  0.80041974     0.07400
H495        H  0.80798197  0.16367587  0.80341233     0.02300
H496        H  0.84808726  0.17382545  0.77769334     0.02800
H497        H  0.85060661  0.17596174  0.82456735     0.06300
H498        H  0.87212190  0.13824550  0.68396564     0.05300
H499        H  0.87473578  0.09559621  0.70574481    -0.00500
H500        H  0.88108343  0.13872825  0.73008898     0.01000
H501        H  0.70278687  0.08754342  0.73530609     0.04600
H502        H  0.68996533  0.12788029  0.71422113     0.06600
H503        H  0.70032567  0.13059776  0.76017460     0.07400
C504        C  0.60495508  0.27435116  0.70349048    -0.22200
C505        C  0.61999404  0.29842843  0.72922922     0.09800
C506        C  0.65630066  0.29315963  0.74060912     0.10200
C507        C  0.67707793  0.26443371  0.72537731    -0.17100
C508        C  0.66247370  0.24054275  0.69905647    -0.27500
C509        C  0.62548373  0.24507614  0.68864033     0.18500
C510        C  0.59728967  0.32893977  0.74415260     0.12500
C511        C  0.67339497  0.31836327  0.76830188    -0.11900
H512        H  0.70540141  0.26134019  0.73336793     0.12800
C513        C  0.60617119  0.21890803  0.66322770    -0.22700
H514        H  0.57677746  0.27811187  0.69533118     0.08400
C515        C  0.59278514  0.36187730  0.72658776     0.04800
C516        C  0.57192573  0.39045347  0.74226619    -0.19900
C517        C  0.55556538  0.38678417  0.77508498    -0.12200
C518        C  0.56069081  0.35399378  0.79291625     0.13500
C519        C  0.58126464  0.32535435  0.77707853    -0.22700
C520        C  0.61067790  0.36706859  0.69170449    -0.05700
H521        H  0.56840042  0.41585684  0.72904393     0.15000
C522        C  0.54598586  0.34974842  0.82925325    -0.15900
H523        H  0.58537278  0.30017384  0.79062755     0.09300
H524        H  0.59899963  0.23329092  0.63920563     0.07200
H525        H  0.58055803  0.20878108  0.67530231     0.08400
H526        H  0.62272806  0.19443771  0.65601470     0.07400
H527        H  0.65773249  0.31687874  0.79304513     0.02300
H528        H  0.67312707  0.34702810  0.75963379     0.02800
H529        H  0.70229326  0.31079665  0.77367397     0.06300
H530        H  0.60483444  0.39460766  0.68175423     0.05300
H531        H  0.60028490  0.34607936  0.67228010    -0.00500
H532        H  0.64089860  0.36420898  0.69418010     0.01000
H533        H  0.51560737  0.34922932  0.82883313     0.04600
H534        H  0.55571687  0.37284741  0.84674024     0.06600
H535        H  0.55525965  0.32372496  0.84040463     0.07400
C536        C  0.82159763  0.81592987  0.14430383    -0.22200
C537        C  0.82657555  0.85390362  0.14698345     0.09800
C538        C  0.80943967  0.87453756  0.17415230     0.10200
C539        C  0.78486062  0.85709983  0.19618787    -0.17100
C540        C  0.77683306  0.81926032  0.19177246    -0.27500
C541        C  0.79804771  0.79802605  0.16693406     0.18500
C542        C  0.84665583  0.87187901  0.11893982     0.12500
C543        C  0.81717632  0.91501558  0.17988943    -0.11900
H544        H  0.77231317  0.87371774  0.21672864     0.12800
C545        C  0.79674195  0.75661180  0.16240421    -0.22700
H546        H  0.83559729  0.80013477  0.12371910     0.08400
C547        C  0.88493641  0.86872853  0.11469656     0.04800
C548        C  0.90184581  0.88533928  0.08644550    -0.19900
C549        C  0.88133414  0.90541661  0.06277071    -0.12200
C550        C  0.84283541  0.90882318  0.06755281     0.13500
C551        C  0.82611158  0.89158832  0.09534510    -0.22700
C552        C  0.90786708  0.84841809  0.14021677    -0.05700
H553        H  0.93128616  0.88286667  0.08298527     0.15000
C554        C  0.81868318  0.92953206  0.04324457    -0.15900
H555        H  0.79661348  0.89336908  0.09877107     0.09300
H556        H  0.82482248  0.74551507  0.16571904     0.07200
H557        H  0.77899282  0.74278761  0.18110878     0.08400
H558        H  0.78695689  0.74868825  0.13568308     0.07400
H559        H  0.80835433  0.93015187  0.15685018     0.02300
H560        H  0.84705489  0.91938465  0.18413558     0.02800
H561        H  0.80241979  0.92686519  0.20306150     0.06300
H562        H  0.93752643  0.84962118  0.13367201     0.05300
H563        H  0.89953493  0.81910921  0.13994672    -0.00500
H564        H  0.90408764  0.86083654  0.16693880     0.01000
H565        H  0.78919036  0.92743382  0.05028362     0.04600
H566        H  0.82178515  0.91815661  0.01606891     0.06600
H567        H  0.82599995  0.95912924  0.04470228     0.07400
C568        C  0.59745488  0.63927375  0.11242625    -0.22200
C569        C  0.60795025  0.63917150  0.14757857     0.09800
C570        C  0.59808408  0.60925308  0.16791934     0.10200
C571        C  0.57763230  0.58006541  0.15248529    -0.17100
C572        C  0.56671916  0.58051052  0.11742242    -0.27500
C573        C  0.57711380  0.61019088  0.09704072     0.18500
C574        C  0.62967556  0.67066631  0.16207741     0.12500
C575        C  0.60941511  0.60804430  0.20564825    -0.11900
H576        H  0.56968217  0.55700561  0.16779366     0.12800
C577        C  0.56764083  0.61067163  0.05880875    -0.22700
H578        H  0.60536741  0.66223668  0.09696647     0.08400
C579        C  0.66694682  0.67511455  0.15325693     0.04800
C580        C  0.68606248  0.70614788  0.16633472    -0.19900
C581        C  0.66901070  0.73260933  0.18855447    -0.12200
C582        C  0.63124854  0.72875845  0.19629595     0.13500
C583        C  0.61216754  0.69757189  0.18326347    -0.22700
C584        C  0.68685950  0.64658037  0.13091979    -0.05700
H585        H  0.71503017  0.70885602  0.16049002     0.15000
C586        C  0.60986030  0.75754303  0.21689999    -0.15900
H587        H  0.58326306  0.69452973  0.18912082     0.09300
H588        H  0.57971952  0.63490437  0.04637635     0.07200
H589        H  0.53746807  0.61185421  0.05534258     0.08400
H590        H  0.57842798  0.58555900  0.04502936     0.07400
H591        H  0.59739250  0.63166599  0.22081869     0.02300
H592        H  0.63979563  0.60938170  0.20768205     0.02800
H593        H  0.59993463  0.58241617  0.21755179     0.06300
H594        H  0.71624861  0.65381436  0.12752807     0.05300
H595        H  0.67413820  0.64403189  0.10461634    -0.00500
H596        H  0.68543053  0.61965746  0.14336259     0.01000
H597        H  0.58578469  0.76595546  0.20140679     0.04600
H598        H  0.62613300  0.78263680  0.22303004     0.06600
H599        H  0.60005469  0.74617504  0.24165827     0.07400
C600        C  0.61564474  0.86301766  0.29507699    -0.22200
C601        C  0.61922189  0.85214510  0.32958093     0.09800
C602        C  0.64971946  0.83090531  0.33900339     0.10200
C603        C  0.67401542  0.81811207  0.31306937    -0.17100
C604        C  0.66923226  0.82698586  0.27821169    -0.27500
C605        C  0.64066195  0.85102178  0.26917725     0.18500
C606        C  0.58831625  0.85787709  0.35420715     0.12500
C607        C  0.65651529  0.82146967  0.37639999    -0.11900
H608        H  0.69659777  0.80051279  0.31991522     0.12800
C609        C  0.63470851  0.86318845  0.23250743    -0.22700
H610        H  0.59227856  0.87946489  0.28798060     0.08400
C611        C  0.58072299  0.89192714  0.37125218     0.04800
C612        C  0.55290998  0.89405979  0.39674311    -0.19900
C613        C  0.53165067  0.86314989  0.40495475    -0.12200
C614        C  0.54200697  0.82836793  0.38935760     0.13500
C615        C  0.56843983  0.82686202  0.36300458    -0.22700
C616        C  0.60258507  0.92567416  0.36323801    -0.05700
H617        H  0.54976887  0.91948704  0.41153128     0.15000
C618        C  0.52782701  0.79147880  0.40023779    -0.15900
H619        H  0.57529334  0.80048756  0.35045925     0.09300
H620        H  0.63694720  0.89356732  0.23224745     0.07200
H621        H  0.60685510  0.85478375  0.22347420     0.08400
H622        H  0.65472929  0.85127964  0.21351735     0.07400
H623        H  0.63400198  0.80407924  0.38608038     0.02300
H624        H  0.65837349  0.84710908  0.39302538     0.02800
H625        H  0.68256000  0.80613520  0.37922006     0.06300
H626        H  0.59359668  0.95003587  0.37936879     0.05300
H627        H  0.59903314  0.93192572  0.33533660    -0.00500
H628        H  0.63211327  0.92095926  0.36852866     0.01000
H629        H  0.51295601  0.77756012  0.37806908     0.04600
H630        H  0.50960648  0.79251256  0.42319712     0.06600
H631        H  0.55143982  0.77406666  0.40727715     0.07400
C632        C  0.85713833  0.54041118  0.57556907    -0.22200
C633        C  0.84520772  0.57662954  0.57182694     0.09800
C634        C  0.85633787  0.59485387  0.54178252     0.10200
C635        C  0.87044326  0.57405381  0.51312660    -0.17100
C636        C  0.87287531  0.53559033  0.51377251    -0.27500
C637        C  0.87341477  0.52056506  0.54731123     0.18500
C638        C  0.82265748  0.59543857  0.59968392     0.12500
C639        C  0.85439601  0.63607298  0.54034811    -0.11900
H640        H  0.87864482  0.58776556  0.48988845     0.12800
C641        C  0.89440657  0.48623783  0.55472563    -0.22700
H642        H  0.85383636  0.52765398  0.60040994     0.08400
C643        C  0.78592855  0.60605654  0.59355033     0.04800
C644        C  0.76703980  0.62728509  0.61928126    -0.19900
C645        C  0.78299756  0.63617725  0.65193544    -0.12200
C646        C  0.81789680  0.62105211  0.65951444     0.13500
C647        C  0.83775880  0.60220892  0.63294301    -0.22700
C648        C  0.76605803  0.59382334  0.56047799    -0.05700
H649        H  0.73991692  0.63746424  0.61356024     0.15000
C650        C  0.83433455  0.62251144  0.69560300    -0.15900
H651        H  0.86508812  0.59223620  0.63839457     0.09300
H652        H  0.87672109  0.46626189  0.56790752     0.07200
H653        H  0.91749712  0.49355891  0.57263442     0.08400
H654        H  0.90632690  0.47308010  0.53072785     0.07400
H655        H  0.87147502  0.64877451  0.56163668     0.02300
H656        H  0.82586570  0.64597604  0.54360524     0.02800
H657        H  0.86485707  0.64572765  0.51509772     0.06300
H658        H  0.73724077  0.60366087  0.56048029     0.05300
H659        H  0.76551595  0.56336780  0.55819870    -0.00500
H660        H  0.77976529  0.60428184  0.53710269     0.01000
H661        H  0.84248758  0.59443819  0.70262537     0.04600
H662        H  0.81456559  0.63223391  0.71576890     0.06600
H663        H  0.85902530  0.64046414  0.69629270     0.07400
C664        C  0.75058118  0.30978118  0.59549541    -0.22200
C665        C  0.77486776  0.29948263  0.56859981     0.09800
C666        C  0.78617909  0.26261435  0.56435510     0.10200
C667        C  0.77262961  0.23676809  0.58728779    -0.17100
C668        C  0.74754146  0.24689120  0.61382609    -0.27500
C669        C  0.73660002  0.28398970  0.61809586     0.18500
C670        C  0.78868874  0.32847785  0.54617679     0.12500
C671        C  0.81200685  0.25053633  0.53544459    -0.11900
H672        H  0.78134550  0.20839362  0.58430103     0.12800
C673        C  0.71171877  0.29715185  0.64731210    -0.22700
H674        H  0.74268745  0.33835914  0.59886782     0.08400
C675        C  0.76583503  0.34457367  0.52133657     0.04800
C676        C  0.77888887  0.37468161  0.50336186    -0.19900
C677        C  0.81401558  0.38900310  0.50995824    -0.12200
C678        C  0.83741827  0.37198626  0.53376553     0.13500
C679        C  0.82426026  0.34214376  0.55194721    -0.22700
C680        C  0.72777331  0.32999418  0.51385990    -0.05700
H681        H  0.76156441  0.38756645  0.48446659     0.15000
C682        C  0.87650748  0.38416586  0.54002046    -0.15900
H683        H  0.84173886  0.32964202  0.57101058     0.09300
H684        H  0.68400228  0.28504423  0.64379482     0.07200
H685        H  0.70842530  0.32745137  0.64810286     0.08400
H686        H  0.72355492  0.28958651  0.67266577     0.07400
H687        H  0.83865475  0.26513486  0.53863100     0.02300
H688        H  0.79987052  0.25681209  0.50980219     0.02800
H689        H  0.81740384  0.22056768  0.53544841     0.06300
H690        H  0.71401681  0.34523022  0.49307758     0.05300
H691        H  0.71061575  0.33266055  0.53774607    -0.00500
H692        H  0.72930091  0.30062214  0.50507866     0.01000
H693        H  0.87985319  0.39400461  0.56766339     0.04600
H694        H  0.88521462  0.40630483  0.52291069     0.06600
H695        H  0.89519849  0.36059669  0.53473927     0.07400
C696        C  0.81677278  0.63981776  0.34904631    -0.22200
C697        C  0.77992691  0.64986251  0.35300365     0.09800
C698        C  0.75735263  0.63170132  0.37675553     0.10200
C699        C  0.77210645  0.60296241  0.39546697    -0.17100
C700        C  0.80870670  0.59228816  0.39067973    -0.27500
C701        C  0.83162819  0.61155348  0.36802189     0.18500
C702        C  0.76537046  0.67798527  0.33027186     0.12500
C703        C  0.71788738  0.64261959  0.38216759    -0.11900
H704        H  0.75502636  0.58824546  0.41336496     0.12800
C705        C  0.87189789  0.60329857  0.36374587    -0.19100
H706        H  0.83402430  0.65408767  0.33087653     0.08400
C707        C  0.77288281  0.71564267  0.33662214     0.04800
C708        C  0.76128265  0.74080786  0.31228033    -0.19900
C709        C  0.74280332  0.72893385  0.28171233    -0.12200
C710        C  0.73525268  0.69117293  0.27552433     0.13500
C711        C  0.74643699  0.66615637  0.30007078    -0.22700
C712        C  0.79344753  0.72908263  0.36880102    -0.05700
H713        H  0.76719762  0.76980394  0.31674797     0.15000
C714        C  0.71717855  0.67683888  0.24240547    -0.15900
H715        H  0.74144186  0.63704413  0.29523295     0.09300
H716        H  0.88811038  0.62859688  0.36998236     0.07200
H717        H  0.87749521  0.59398197  0.33630824     0.08400
H718        H  0.88165512  0.58194471  0.38121023     0.07400
H719        H  0.70247778  0.63863570  0.35729723     0.02300
H720        H  0.71647711  0.67195235  0.39111770     0.02800
H721        H  0.70432003  0.62596781  0.40210426     0.06300
H722        H  0.79656449  0.75942884  0.36993757     0.05300
H723        H  0.82129933  0.71685872  0.36890999    -0.00500
H724        H  0.77837481  0.72105709  0.39248418     0.01000
H725        H  0.71530926  0.64639497  0.24106903     0.04600
H726        H  0.73346501  0.68533212  0.21963044     0.06600
H727        H  0.68887322  0.68762924  0.24106846     0.07400
C728        C  0.18804956  0.15506834  0.78654412    -0.22200
C729        C  0.15036646  0.16080279  0.78439131     0.09800
C730        C  0.13690107  0.19160169  0.76772162     0.10200
C731        C  0.16174813  0.21624416  0.75340559    -0.17100
C732        C  0.20009994  0.21091385  0.75523048    -0.27500
C733        C  0.21319009  0.17960694  0.77272365     0.18500
C734        C  0.12589633  0.13623969  0.80324576     0.12500
C735        C  0.09622134  0.19846934  0.76509411    -0.11900
H736        H  0.15039164  0.23992213  0.74171002     0.12800
C737        C  0.25319862  0.17052127  0.77835691    -0.22700
H738        H  0.19802531  0.13157497  0.80019296     0.08400
C739        C  0.11784573  0.10020500  0.79057715     0.04800
C740        C  0.09558530  0.07772860  0.81061335    -0.19900
C741        C  0.08121438  0.09083162  0.84265876    -0.12200
C742        C  0.09002140  0.12672140  0.85563465     0.13500
C743        C  0.11233675  0.14894764  0.83566279    -0.22700
C744        C  0.13239649  0.08574591  0.75590325    -0.05700
H745        H  0.08899482  0.05004165  0.80110426     0.15000
C746        C  0.07719005  0.14136477  0.89097186    -0.15900
H747        H  0.11956334  0.17639110  0.84544122     0.09300
H748        H  0.25945378  0.14360023  0.76506193     0.07200
H749        H  0.25842619  0.16844592  0.80676125     0.08400
H750        H  0.27301955  0.19069851  0.76891310     0.07400
H751        H  0.08419810  0.20239139  0.79159106     0.02300
H752        H  0.08271631  0.17465420  0.75129667     0.02800
H753        H  0.09018654  0.22338402  0.75044895     0.06300
H754        H  0.12289053  0.05722397  0.74968453     0.05300
H755        H  0.16285084  0.08569688  0.75633948    -0.00500
H756        H  0.12279043  0.10340843  0.73487033     0.01000
H757        H  0.08896678  0.16892042  0.89771725     0.04600
H758        H  0.08581129  0.12254113  0.91145695     0.06600
H759        H  0.04689698  0.14415179  0.89118588     0.07400
C760        C  0.39842299  0.37839535  0.85087523    -0.22200
C761        C  0.37309611  0.38339039  0.82407299     0.09800
C762        C  0.37540551  0.41491276  0.80439250     0.10200
C763        C  0.40333325  0.44037198  0.81157716    -0.17100
C764        C  0.42837025  0.43711490  0.83941466    -0.27500
C765        C  0.42728678  0.40355024  0.85748640     0.18500
C766        C  0.34903262  0.35265493  0.81197640     0.12500
C767        C  0.34990442  0.42062542  0.77402256    -0.11900
H768        H  0.40744592  0.46092123  0.79263531     0.12800
C769        C  0.45798941  0.39002661  0.87999108    -0.22700
H770        H  0.39770576  0.35290882  0.86446769     0.08400
C771        C  0.36312277  0.32361672  0.79045897     0.04800
C772        C  0.33873233  0.29917806  0.77330453    -0.19900
C773        C  0.30074525  0.30399746  0.77579796    -0.12200
C774        C  0.28658272  0.33252290  0.79816259     0.13500
C775        C  0.31105016  0.35597907  0.81657814    -0.22700
C776        C  0.40376494  0.31959368  0.78399366    -0.05700
H777        H  0.34940122  0.27671145  0.75718390     0.15000
C778        C  0.24619040  0.34064428  0.80185110    -0.15900
H779        H  0.30039833  0.37869740  0.83271336     0.09300
H780        H  0.46491134  0.36133348  0.87163946     0.07200
H781        H  0.44907256  0.39016474  0.90769228     0.08400
H782        H  0.48384671  0.40552542  0.87759015     0.07400
H783        H  0.32112318  0.42228886  0.78342329     0.02300
H784        H  0.35246987  0.39748023  0.75439878     0.02800
H785        H  0.35611093  0.44645870  0.76080858     0.06300
H786        H  0.40988179  0.29595159  0.76569852     0.05300
H787        H  0.41818090  0.31511365  0.80895061    -0.00500
H788        H  0.41473599  0.34479849  0.77239643     0.01000
H789        H  0.23768641  0.33738997  0.82936536     0.04600
H790        H  0.22855080  0.32276704  0.78488052     0.06600
H791        H  0.24100042  0.36942242  0.79487475     0.07400
C792        C  0.77342609  0.17905045  0.10958679    -0.22200
C793        C  0.81130755  0.17504202  0.11258469     0.09800
C794        C  0.83050874  0.19457842  0.13924132     0.10200
C795        C  0.81153319  0.21951666  0.16127278    -0.17100
C796        C  0.77353623  0.22577852  0.15728308    -0.27500
C797        C  0.75397907  0.20316368  0.13208087     0.18500
C798        C  0.83064444  0.15059183  0.08722434     0.12500
C799        C  0.87106645  0.18878259  0.14468061    -0.11900
H800        H  0.82706143  0.23330592  0.18174767     0.12800
C801        C  0.71275016  0.20301249  0.12736587    -0.22700
H802        H  0.75883315  0.16311299  0.08939443     0.08400
C803        C  0.82886577  0.11211659  0.08892429     0.04800
C804        C  0.85001878  0.09036813  0.06569350    -0.19900
C805        C  0.87299978  0.10630717  0.04108439    -0.12200
C806        C  0.87350483  0.14500887  0.03854871     0.13500
C807        C  0.85213432  0.16658659  0.06169858    -0.22700
C808        C  0.80538155  0.09409635  0.11569726    -0.05700
H809        H  0.84919290  0.06076585  0.06725938     0.15000
C810        C  0.89555799  0.16395608  0.01124341    -0.15900
H811        H  0.85258495  0.19624243  0.06035935     0.09300
H812        H  0.70214436  0.17471169  0.13031350     0.07200
H813        H  0.70594601  0.21168469  0.10070555     0.08400
H814        H  0.69754135  0.22085027  0.14621732     0.07400
H815        H  0.88659405  0.19671864  0.12124810     0.02300
H816        H  0.87630578  0.15942724  0.14942784     0.02800
H817        H  0.88173609  0.20546985  0.16741926     0.06300
H818        H  0.80793353  0.06372751  0.11389254     0.05300
H819        H  0.77609702  0.10099319  0.11160330    -0.00500
H820        H  0.81384625  0.10383734  0.14235022     0.01000
H821        H  0.89045574  0.19400529  0.01196152     0.04600
H822        H  0.88794909  0.15278027  0.98480063     0.06600
H823        H  0.92532021  0.16007749  0.01584991     0.07400
C824        C  0.62905786  0.36267609  0.14283335    -0.22200
C825        C  0.64103478  0.37217920  0.10954059     0.09800
C826        C  0.67718474  0.36302872  0.09925325     0.10200
C827        C  0.70023962  0.34526004  0.12266641    -0.17100
C828        C  0.68753328  0.33333486  0.15519503    -0.27500
C829        C  0.65100943  0.34217670  0.16509807     0.18500
C830        C  0.61436208  0.39067727  0.08628992     0.12500
C831        C  0.69088185  0.36955863  0.06289624    -0.11900
H832        H  0.72816595  0.33914015  0.11464902     0.12800
C833        C  0.63351844  0.32809417  0.19752704    -0.22700
H834        H  0.60145818  0.37012449  0.15090377     0.08400
C835        C  0.58044168  0.37406916  0.07679308     0.04800
C836        C  0.55252673  0.39558807  0.06277290    -0.19900
C837        C  0.55739757  0.43342525  0.05846572    -0.12200
C838        C  0.59422999  0.44646093  0.05849250     0.13500
C839        C  0.62162275  0.42610998  0.07487347    -0.22700
C840        C  0.57359115  0.33372980  0.08129050    -0.05700
H841        H  0.52643347  0.38295167  0.05618589     0.15000
C842        C  0.60599576  0.48001069  0.03961723    -0.15900
H843        H  0.64839298  0.43845327  0.07934290     0.09300
H844        H  0.63712866  0.29795923  0.19820199     0.07200
H845        H  0.60354220  0.33349980  0.19824367     0.08400
H846        H  0.64532256  0.34212005  0.22112080     0.07400
H847        H  0.69240331  0.39931154  0.05840006     0.02300
H848        H  0.67215845  0.35602647  0.04338214     0.02800
H849        H  0.71879340  0.35809684  0.05850059     0.06300
H850        H  0.54650493  0.32494861  0.07051704     0.05300
H851        H  0.57388259  0.32730153  0.10928450    -0.00500
H852        H  0.59512335  0.31744163  0.06726485     0.01000
H853        H  0.62074231  0.49974001  0.05750987     0.04600
H854        H  0.58262716  0.49407471  0.02752414     0.06600
H855        H  0.62521454  0.47151228  0.01832244     0.07400
C856        C  0.79678924  0.39467780  0.26926900    -0.22200
C857        C  0.81774904  0.37897512  0.29551963     0.09800
C858        C  0.81847188  0.34040817  0.29740220     0.10200
C859        C  0.79920199  0.31856430  0.27243616    -0.17100
C860        C  0.77768274  0.33416572  0.24647127    -0.27500
C861        C  0.77674908  0.37285844  0.24473043     0.18500
C862        C  0.83183859  0.40325441  0.32474414     0.12500
C863        C  0.83770553  0.32225778  0.32690249    -0.11900
H864        H  0.80007197  0.28895086  0.27376909     0.12800
C865        C  0.75561710  0.39220759  0.21724555    -0.22700
H866        H  0.79530409  0.42433461  0.26849923     0.08400
C867        C  0.86905300  0.41340845  0.32920359     0.04800
C868        C  0.87974456  0.43488113  0.35917013    -0.19900
C869        C  0.85396284  0.44731470  0.38440201    -0.12200
C870        C  0.81589238  0.43902280  0.37763608     0.13500
C871        C  0.80602604  0.41660436  0.34869392    -0.22700
C872        C  0.89710229  0.40291665  0.30173793    -0.05700
H873        H  0.90811571  0.44273505  0.36194137     0.15000
C874        C  0.78360488  0.45272389  0.39947466    -0.15900
H875        H  0.77733608  0.40952002  0.34454126     0.09300
H876        H  0.77457082  0.40993491  0.20269908     0.07200
H877        H  0.73410109  0.40966157  0.22992824     0.08400
H878        H  0.74229167  0.37316674  0.19794682     0.07400
H879        H  0.82577967  0.33206594  0.35225942     0.02300
H880        H  0.86740763  0.32879325  0.32676018     0.02800
H881        H  0.83472778  0.29191030  0.32483134     0.06300
H882        H  0.92482171  0.41358249  0.30888550     0.05300
H883        H  0.88908754  0.41452720  0.27653785    -0.00500
H884        H  0.89893195  0.37268282  0.29812438     0.01000
H885        H  0.76465962  0.46807827  0.38274834     0.04600
H886        H  0.79022876  0.47123144  0.42203524     0.06600
H887        H  0.76849952  0.42889328  0.40961131     0.07400
C888        C  0.58581518  0.07940708  0.51226541    -0.22200
C889        C  0.58526704  0.11072117  0.53467051     0.09800
C890        C  0.55729413  0.13672823  0.53156536     0.10200
C891        C  0.52980706  0.13032835  0.50678766    -0.17100
C892        C  0.52798184  0.09765959  0.48563752    -0.27500
C893        C  0.55844269  0.07325153  0.48672497     0.18500
C894        C  0.61614117  0.11879591  0.55865081     0.12500
C895        C  0.55686540  0.17187477  0.55392951    -0.11900
H896        H  0.51070415  0.15239736  0.50306083     0.12800
C897        C  0.56516205  0.04229743  0.46013394    -0.22700
H898        H  0.60876196  0.06064995  0.51353707     0.08400
C899        C  0.61525214  0.10834612  0.59360217     0.04800
C900        C  0.64081508  0.12378253  0.61740359    -0.19900
C901        C  0.66664679  0.14981229  0.60692397    -0.12200
C902        C  0.66871594  0.15857455  0.57139688     0.13500
C903        C  0.64350159  0.14271426  0.54763520    -0.22700
C904        C  0.58666624  0.08186461  0.60580412    -0.05700
H905        H  0.63983516  0.11656229  0.64454537     0.15000
C906        C  0.69757661  0.18413193  0.55815521    -0.15900
H907        H  0.64382811  0.15046151  0.52063528     0.09300
H908        H  0.56461838  0.01564410  0.47311072     0.07200
H909        H  0.59267398  0.04584349  0.44825133     0.08400
H910        H  0.54538659  0.04130118  0.43828261     0.07400
H911        H  0.58173957  0.18845456  0.54877438     0.02300
H912        H  0.55620163  0.16539558  0.58196906     0.02800
H913        H  0.53250208  0.18896412  0.54854573     0.06300
H914        H  0.58980709  0.07662700  0.63398934     0.05300
H915        H  0.58925191  0.05528758  0.59075396    -0.00500
H916        H  0.55881751  0.09315901  0.60170565     0.01000
H917        H  0.69654077  0.18573108  0.52928813     0.04600
H918        H  0.72517619  0.17408161  0.56522868     0.06600
H919        H  0.69334305  0.21226780  0.56940231     0.07400
C920        C  0.35371629  0.14552669  0.57268272    -0.22200
C921        C  0.34711127  0.18337815  0.57321168     0.09800
C922        C  0.35870846  0.20429717  0.54514084     0.10200
C923        C  0.37720742  0.18677365  0.51709542    -0.17100
C924        C  0.38497091  0.14917873  0.51710823    -0.27500
C925        C  0.37280217  0.12815123  0.54496481     0.18500
C926        C  0.32928200  0.20063918  0.60419438     0.12500
C927        C  0.35252322  0.24513167  0.54537376    -0.11900
H928        H  0.38739030  0.20266051  0.49585342     0.12800
C929        C  0.38000366  0.08760062  0.54625084    -0.22700
H930        H  0.34463260  0.12964656  0.59440056     0.08400
C931        C  0.29082740  0.20183579  0.60721178     0.04800
C932        C  0.27524199  0.21630825  0.63815894    -0.19900
C933        C  0.29729544  0.22923444  0.66624567    -0.12200
C934        C  0.33582699  0.22896737  0.66268282     0.13500
C935        C  0.35141939  0.21457758  0.63158970    -0.22700
C936        C  0.26638400  0.18733221  0.57801930    -0.05700
H937        H  0.24561181  0.21706737  0.64072005     0.15000
C938        C  0.36056900  0.24246555  0.69185211    -0.15900
H939        H  0.38100242  0.21351191  0.62879614     0.09300
H940        H  0.35352135  0.07266396  0.54827787     0.07200
H941        H  0.39703411  0.08217374  0.56950179     0.08400
H942        H  0.39440308  0.07642223  0.52265820     0.07400
H943        H  0.36651029  0.25859612  0.56829303     0.02300
H944        H  0.32269435  0.25102312  0.54692295     0.02800
H945        H  0.36350618  0.25730556  0.52140850     0.06300
H946        H  0.23686469  0.19045541  0.58470564     0.05300
H947        H  0.27188551  0.15770928  0.57258166    -0.00500
H948        H  0.27180154  0.20253509  0.55405621     0.01000
H949        H  0.38999156  0.23848011  0.68519274     0.04600
H950        H  0.35464940  0.22711769  0.71562657     0.06600
H951        H  0.35619981  0.27225486  0.69703845     0.07400
C952        C  0.65480296  0.23922646  0.30543928    -0.22200
C953        C  0.62819305  0.21508572  0.29084047     0.09800
C954        C  0.62535559  0.21088662  0.25415463     0.10200
C955        C  0.64980756  0.22985408  0.23296893    -0.17100
C956        C  0.67731123  0.25303797  0.24739311    -0.27500
C957        C  0.67955928  0.25809254  0.28411472     0.18500
C958        C  0.60427176  0.19333726  0.31405368     0.12500
C959        C  0.59714498  0.18549160  0.23735784    -0.11900
H960        H  0.64837983  0.22551974  0.20482052     0.12800
C961        C  0.70929614  0.28160672  0.30080803    -0.22700
H962        H  0.65694429  0.24237960  0.33363480     0.08400
C963        C  0.61499372  0.15850292  0.32526810     0.04800
C964        C  0.59073442  0.13808155  0.34561878    -0.19900
C965        C  0.55555923  0.15117519  0.35429600    -0.12200
C966        C  0.54495583  0.18617056  0.34322565     0.13500
C967        C  0.56946774  0.20682679  0.32337574    -0.22700
C968        C  0.65186152  0.14272632  0.31532141    -0.05700
H969        H  0.59894688  0.11147932  0.35444140     0.15000
C970        C  0.50820240  0.20225924  0.35306469    -0.15900
H971        H  0.56128907  0.23348269  0.31465502     0.09300
H972        H  0.70766127  0.28206693  0.32976192     0.07200
H973        H  0.70675734  0.31024441  0.29243603     0.08400
H974        H  0.73655987  0.27061756  0.29293009     0.07400
H975        H  0.56919756  0.19456440  0.24525166     0.02300
H976        H  0.60154727  0.15706238  0.24572164     0.02800
H977        H  0.59874793  0.18516284  0.20839877     0.06300
H978        H  0.65595793  0.11522849  0.32608746     0.05300
H979        H  0.67399680  0.16121139  0.32556237    -0.00500
H980        H  0.65417025  0.13982391  0.28644358     0.01000
H981        H  0.50544652  0.23081716  0.34444629     0.04600
H982        H  0.50470419  0.20271797  0.38186534     0.06600
H983        H  0.48589141  0.18579516  0.34040171     0.07400
C984        C  0.17224463  0.82543735  0.75686361    -0.22200
C985        C  0.13404017  0.82300555  0.75545218     0.09800
C986        C  0.11735698  0.80111115  0.72877415     0.10200
C987        C  0.13941509  0.78017778  0.70537111    -0.17100
C988        C  0.17823942  0.78059273  0.70759061    -0.27500
C989        C  0.19459206  0.80535169  0.73316063     0.18500
C990        C  0.11224124  0.84335597  0.78264749     0.12500
C991        C  0.07618203  0.80021603  0.72478493    -0.11900
H992        H  0.12548064  0.76416245  0.68518318     0.12800
C993        C  0.23541092  0.81197388  0.73710930    -0.22700
H994        H  0.18484691  0.84319785  0.77692172     0.08400
C995        C  0.10026229  0.82626798  0.81300798     0.04800
C996        C  0.08039797  0.84672166  0.83851071    -0.19900
C997        C  0.07322820  0.88419446  0.83486831    -0.12200
C998        C  0.08541090  0.90131698  0.80437110     0.13500
C999        C  0.10483782  0.88063382  0.77873533    -0.22700
C1000       C  0.10956459  0.78678440  0.81897702    -0.05700
H1001       H  0.07153428  0.83370644  0.86200364     0.15000
C1002       C  0.07769262  0.94094952  0.79733415    -0.15900
H1003       H  0.11424937  0.89367621  0.75544135     0.09300
H1004       H  0.24435050  0.80374448  0.76334534     0.07200
H1005       H  0.24125545  0.84168654  0.73480238     0.08400
H1006       H  0.25271187  0.79729759  0.71754733     0.07400
H1007       H  0.06600766  0.82830181  0.72031945     0.02300
H1008       H  0.06320749  0.79010547  0.74874800     0.02800
H1009       H  0.06737826  0.78194750  0.70237094     0.06300
H1010       H  0.09870386  0.77781272  0.84432117     0.05300
H1011       H  0.13984090  0.78335647  0.81914351    -0.00500
H1012       H  0.09767681  0.76864024  0.79789004     0.01000
H1013       H  0.10396028  0.95641502  0.79630241     0.04600
H1014       H  0.05970290  0.95469066  0.81708927     0.06600
H1015       H  0.06357014  0.94252437  0.77176687     0.07400
C1016       C  0.37858015  0.59544873  0.73502026    -0.22200
C1017       C  0.36719902  0.62887611  0.75083815     0.09800
C1018       C  0.38092919  0.63939978  0.78436507     0.10200
C1019       C  0.40517725  0.61593183  0.80146727    -0.17100
C1020       C  0.41539619  0.58185033  0.78610489    -0.27500
C1021       C  0.40250142  0.57192003  0.75211036     0.18500
C1022       C  0.33847424  0.65053025  0.73300398     0.12500
C1023       C  0.36935222  0.67500735  0.80231964    -0.11900
H1024       H  0.41517060  0.62350483  0.82743552     0.12800
C1025       C  0.41342954  0.53660795  0.73313149    -0.22700
H1026       H  0.36811448  0.58728490  0.70935680     0.08400
C1027       C  0.34679914  0.67438957  0.70593575     0.04800
C1028       C  0.31815128  0.69280814  0.68914330    -0.19900
C1029       C  0.28125776  0.68790965  0.69871674    -0.12200
C1030       C  0.27302056  0.66299733  0.72519932     0.13500
C1031       C  0.30169113  0.64518005  0.74216866    -0.22700
C1032       C  0.38594460  0.68082195  0.69521465    -0.05700
H1033       H  0.32466173  0.71187274  0.66908594     0.15000
C1034       C  0.23436889  0.65332540  0.73561394    -0.15900
H1035       H  0.29521077  0.62623500  0.76237540     0.09300
H1036       H  0.42573731  0.54280156  0.70752843     0.07200
H1037       H  0.38875647  0.51907500  0.72857529     0.08400
H1038       H  0.43397978  0.52083530  0.74754888     0.07400
H1039       H  0.33917316  0.67501331  0.80629825     0.02300
H1040       H  0.37704114  0.69827682  0.78601205     0.02800
H1041       H  0.38270694  0.67926067  0.82825358     0.06300
H1042       H  0.38783467  0.70057100  0.67399015     0.05300
H1043       H  0.39841607  0.65453603  0.68568267    -0.00500
H1044       H  0.40188543  0.69210840  0.71795013     0.01000
H1045       H  0.23062185  0.62307632  0.73319613     0.04600
H1046       H  0.21314470  0.66542322  0.71900211     0.06600
H1047       H  0.22956352  0.66262082  0.76320449     0.07400
C1048       C  0.29941059  0.78445700  0.55471946    -0.22200
C1049       C  0.32296877  0.81210767  0.56839717     0.09800
C1050       C  0.32102332  0.82221058  0.60428084     0.10200
C1051       C  0.29676396  0.80352954  0.62593705    -0.17100
C1052       C  0.27411780  0.77486310  0.61267689    -0.27500
C1053       C  0.27477254  0.76590898  0.57633710     0.18500
C1054       C  0.35305798  0.82620161  0.54609325     0.12500
C1055       C  0.34505087  0.85239978  0.61976983    -0.11900
H1056       H  0.29576893  0.81106028  0.65359434     0.12800
C1057       C  0.24881479  0.73786302  0.55998160    -0.22700
H1058       H  0.30097732  0.77678278  0.52711460     0.08400
C1059       C  0.38612936  0.80677474  0.54281266     0.04800
C1060       C  0.41406141  0.81990647  0.52158362    -0.19900
C1061       C  0.41169545  0.85349673  0.50443640    -0.12200
C1062       C  0.37624685  0.87019308  0.50428988     0.13500
C1063       C  0.34830832  0.85763355  0.52665749    -0.22700
C1064       C  0.39174138  0.77138817  0.56113592    -0.05700
H1065       H  0.43709423  0.80190859  0.51676929     0.15000
C1066       C  0.36474275  0.89769958  0.47823098    -0.15900
H1067       H  0.32185253  0.87113782  0.52732070     0.09300
H1068       H  0.25471125  0.71025543  0.56952060     0.07200
H1069       H  0.25144010  0.73615540  0.53107826     0.08400
H1070       H  0.22006246  0.74549423  0.56645803     0.07400
H1071       H  0.33930826  0.87838063  0.60671156     0.02300
H1072       H  0.37439000  0.84516713  0.61599637     0.02800
H1073       H  0.34006692  0.85708062  0.64820251     0.06300
H1074       H  0.41938798  0.75962246  0.55598475     0.05300
H1075       H  0.37100809  0.75076050  0.55198855    -0.00500
H1076       H  0.38891468  0.77640080  0.58978617     0.01000
H1077       H  0.33869036  0.88844482  0.46555170     0.04600
H1078       H  0.38448012  0.90027026  0.45663862     0.06600
H1079       H  0.35999431  0.92480953  0.49170153     0.07400
C1080       C  0.21372022  0.41676530  0.58290488    -0.22200
C1081       C  0.19680104  0.38426006  0.59285248     0.09800
C1082       C  0.16680845  0.36968977  0.57353224     0.10200
C1083       C  0.15424724  0.38808817  0.54461262    -0.17100
C1084       C  0.17093123  0.42069467  0.53449297    -0.27500
C1085       C  0.20129525  0.43514202  0.55371003     0.18500
C1086       C  0.21125338  0.36483843  0.62289577     0.12500
C1087       C  0.14809219  0.33468964  0.58344253    -0.11900
H1088       H  0.13070477  0.37741310  0.53010508     0.12800
C1089       C  0.22185329  0.46900407  0.54362230    -0.22700
H1090       H  0.23704299  0.42751921  0.59769565     0.08400
C1091       C  0.23963186  0.33895006  0.61853163     0.04800
C1092       C  0.24836741  0.31669006  0.64618969    -0.19900
C1093       C  0.22937300  0.31975959  0.67807851    -0.12200
C1094       C  0.20298716  0.34782948  0.68329928     0.13500
C1095       C  0.19395533  0.36983317  0.65538616    -0.22700
C1096       C  0.25991894  0.33411980  0.58438453    -0.05700
H1097       H  0.26925714  0.29595652  0.64236306     0.15000
C1098       C  0.18533753  0.35567657  0.71835185    -0.15900
H1099       H  0.17271866  0.39044493  0.65858212     0.09300
H1100       H  0.25136691  0.46232678  0.54012431     0.07200
H1101       H  0.21912867  0.49072802  0.56466925     0.08400
H1102       H  0.21213349  0.47995988  0.51876850     0.07400
H1103       H  0.13677872  0.33804427  0.61028123     0.02300
H1104       H  0.16812076  0.31179930  0.58247226     0.02800
H1105       H  0.12510252  0.32715439  0.56545455     0.06300
H1106       H  0.28124867  0.31249642  0.58539148     0.05300
H1107       H  0.27365635  0.36029300  0.57818507    -0.00500
H1108       H  0.24039503  0.32617055  0.56311687     0.01000
H1109       H  0.16691822  0.37986493  0.71796949     0.04600
H1110       H  0.20697430  0.36175515  0.73811540     0.06600
H1111       H  0.16862588  0.33202966  0.72628242     0.07400
C1112       C  0.14103282  0.56752564  0.28744417    -0.22200
C1113       C  0.17609447  0.58330716  0.28935378     0.09800
C1114       C  0.19814617  0.57890599  0.31913047     0.10200
C1115       C  0.18423110  0.55914246  0.34681271    -0.17100
C1116       C  0.14891760  0.54385892  0.34517960    -0.27500
C1117       C  0.12696875  0.54808639  0.31522945     0.18500
C1118       C  0.18773676  0.60731269  0.26140992     0.12500
C1119       C  0.23611228  0.59532346  0.32170566    -0.11900
H1120       H  0.20070111  0.55573189  0.36998557     0.12800
C1121       C  0.08816483  0.53392643  0.31244761    -0.22700
H1122       H  0.12409078  0.57151579  0.26465996     0.08400
C1123       C  0.20536360  0.59344404  0.23096040     0.04800
C1124       C  0.21649891  0.61791247  0.20573666    -0.19900
C1125       C  0.21016227  0.65573288  0.21029729    -0.12200
C1126       C  0.19263851  0.66955738  0.24116132     0.13500
C1127       C  0.18123189  0.64497481  0.26604750    -0.22700
C1128       C  0.21252205  0.55298478  0.22526813    -0.05700
H1129       H  0.23011793  0.60742628  0.18237753     0.15000
C1130       C  0.18685427  0.70989944  0.24980617    -0.15900
H1131       H  0.16790210  0.65534661  0.28975591     0.09300
H1132       H  0.08611882  0.51320275  0.29044080     0.07200
H1133       H  0.06936907  0.55700531  0.30737241     0.08400
H1134       H  0.07856999  0.52128055  0.33658228     0.07400
H1135       H  0.23459273  0.62562205  0.32023790     0.02300
H1136       H  0.25333008  0.58409931  0.29989100     0.02800
H1137       H  0.24972375  0.58900793  0.34667300     0.06300
H1138       H  0.22657139  0.54676958  0.19998545     0.05300
H1139       H  0.18613247  0.53765562  0.22516839    -0.00500
H1140       H  0.23020464  0.54325072  0.24654948     0.01000
H1141       H  0.15699138  0.71569906  0.25136479     0.04600
H1142       H  0.19935981  0.72810841  0.23075014     0.06600
H1143       H  0.19954987  0.71725917  0.27553146     0.07400
C1144       C  0.10558943  0.58091103  0.54639964    -0.22200
C1145       C  0.13790767  0.60005291  0.53898090     0.09800
C1146       C  0.15641297  0.59172938  0.50757690     0.10200
C1147       C  0.14195461  0.56509684  0.48405886    -0.17100
C1148       C  0.10858865  0.54620515  0.48995842    -0.27500
C1149       C  0.09189048  0.55270926  0.52344545     0.18500
C1150       C  0.15390016  0.62679429  0.56525479     0.12500
C1151       C  0.19239725  0.61006800  0.49930724    -0.11900
H1152       H  0.15927410  0.55694410  0.46231980     0.12800
C1153       C  0.06302439  0.52810821  0.53837447    -0.22700
H1154       H  0.09249325  0.58615557  0.57151975     0.08400
C1155       C  0.14285791  0.66378051  0.56709317     0.04800
C1156       C  0.16086879  0.68879001  0.59022765    -0.19900
C1157       C  0.18985283  0.67785047  0.61176007    -0.12200
C1158       C  0.20091979  0.64059166  0.60981368     0.13500
C1159       C  0.18272637  0.61559169  0.58661488    -0.22700
C1160       C  0.11221744  0.67682802  0.54439812    -0.05700
H1161       H  0.15219366  0.71722117  0.59158404     0.15000
C1162       C  0.23075877  0.62648443  0.63283875    -0.15900
H1163       H  0.19124735  0.58710744  0.58478976     0.09300
H1164       H  0.03623209  0.54247291  0.53948527     0.07200
H1165       H  0.07088500  0.52125836  0.56534771     0.08400
H1166       H  0.06020683  0.50136875  0.52408178     0.07400
H1167       H  0.21328774  0.60352730  0.51917214     0.02300
H1168       H  0.18862930  0.64025911  0.49927762     0.02800
H1169       H  0.20315842  0.60078544  0.47329549     0.06300
H1170       H  0.10699231  0.70663770  0.54893420     0.05300
H1171       H  0.08655409  0.66172622  0.55018234    -0.00500
H1172       H  0.11940103  0.67181021  0.51644496     0.01000
H1173       H  0.23357582  0.59619799  0.62971819     0.04600
H1174       H  0.22428475  0.63329397  0.66060960     0.06600
H1175       H  0.25758338  0.63856270  0.62596855     0.07400
C1176       C  0.13383168  0.12496877  0.07568359    -0.22200
C1177       C  0.11322108  0.14077782  0.10317205     0.09800
C1178       C  0.07464152  0.13753639  0.10268008     0.10200
C1179       C  0.05760396  0.11754700  0.07494313    -0.17100
C1180       C  0.07831181  0.10082043  0.04774861    -0.27500
C1181       C  0.11697405  0.10554843  0.04766439     0.18500
C1182       C  0.13320953  0.15987025  0.13234748     0.12500
C1183       C  0.05164011  0.15453440  0.13168446    -0.11900
H1184       H  0.02800635  0.11431818  0.07485144     0.12800
C1185       C  0.14147147  0.09222558  0.01806991    -0.22700
H1186       H  0.16344315  0.12818262  0.07594946     0.08400
C1187       C  0.15088982  0.14002256  0.15805322     0.04800
C1188       C  0.17263212  0.15873213  0.18326611    -0.19900
C1189       C  0.17806176  0.19720415  0.18336853    -0.12200
C1190       C  0.15717814  0.21718999  0.15893242     0.13500
C1191       C  0.13599497  0.19811108  0.13337767    -0.22700
C1192       C  0.14665093  0.09890187  0.15892917    -0.05700
H1193       H  0.18445800  0.14251987  0.20313202     0.15000
C1194       C  0.15558785  0.25852866  0.15856331    -0.15900
H1195       H  0.12144841  0.21327158  0.11396280     0.09300
H1196       H  0.16039041  0.07093528  0.02739039     0.07200
H1197       H  0.15804051  0.11559659  0.00895908     0.08400
H1198       H  0.12634743  0.08097611  0.99499945     0.07400
H1199       H  0.05575551  0.18474411  0.13306687     0.02300
H1200       H  0.05975142  0.14319004  0.15697500     0.02800
H1201       H  0.02193174  0.14893271  0.12751858     0.06300
H1202       H  0.16169603  0.08747634  0.18118790     0.05300
H1203       H  0.15757249  0.08569899  0.13446883    -0.00500
H1204       H  0.11716920  0.09169375  0.16155255     0.01000
H1205       H  0.16774662  0.26792275  0.13390640     0.04600
H1206       H  0.16969433  0.27271399  0.18065783     0.06600
H1207       H  0.12649090  0.26745950  0.15995877     0.07400
C1208       C  0.37808144  0.38774455  0.17737192    -0.22200
C1209       C  0.37012883  0.35216012  0.16411480     0.09800
C1210       C  0.38829950  0.33878579  0.13356918     0.10200
C1211       C  0.41362278  0.36147644  0.11678888    -0.17100
C1212       C  0.42070392  0.39754490  0.12938204    -0.27500
C1213       C  0.40335355  0.41041234  0.16065173     0.18500
C1214       C  0.34047319  0.33063136  0.18079532     0.12500
C1215       C  0.37971024  0.30118078  0.11779612    -0.11900
H1216       H  0.42669261  0.35172742  0.09278782     0.12800
C1217       C  0.41136071  0.44766754  0.17735542    -0.22700
H1218       H  0.36421960  0.39803979  0.20082298     0.08400
C1219       C  0.34782559  0.30383523  0.20545450     0.04800
C1220       C  0.31870265  0.28268295  0.21833134    -0.19900
C1221       C  0.28229275  0.28839074  0.20781209    -0.12200
C1222       C  0.27479334  0.31748993  0.18551819     0.13500
C1223       C  0.30397750  0.33750430  0.17163823    -0.22700
C1224       C  0.38627859  0.29775543  0.21830640    -0.05700
H1225       H  0.32449225  0.26099185  0.23600842     0.15000
C1226       C  0.23634667  0.32914822  0.17691612    -0.15900
H1227       H  0.29817363  0.35900858  0.15373996     0.09300
H1228       H  0.41960160  0.44468310  0.20498593     0.07200
H1229       H  0.38637928  0.46498236  0.17663937     0.08400
H1230       H  0.43420698  0.46180632  0.16440354     0.07400
H1231       H  0.35011975  0.29933844  0.11099095     0.02300
H1232       H  0.38622776  0.27990472  0.13665991     0.02800
H1233       H  0.39584766  0.29516804  0.09365521     0.06300
H1234       H  0.38720130  0.27603900  0.23776379     0.05300
H1235       H  0.39703192  0.32358613  0.23093629    -0.00500
H1236       H  0.40443399  0.28934225  0.19619953     0.01000
H1237       H  0.23338664  0.35907192  0.18287916     0.04600
H1238       H  0.21538882  0.31534865  0.19264784     0.06600
H1239       H  0.23076819  0.32337741  0.14872922     0.07400
C1240       C  0.30237268  0.17351040  0.33367931    -0.22200
C1241       C  0.33009325  0.15285396  0.31678851     0.09800
C1242       C  0.33103992  0.15025209  0.27996255     0.10200
C1243       C  0.30493601  0.16933146  0.26081220    -0.17100
C1244       C  0.27766510  0.19069855  0.27766008    -0.27500
C1245       C  0.27589114  0.19219661  0.31454291     0.18500
C1246       C  0.35904703  0.13592408  0.33817846     0.12500
C1247       C  0.35976723  0.12753589  0.26096591    -0.11900
H1248       H  0.30590147  0.16776559  0.23251866     0.12800
C1249       C  0.24538268  0.21223618  0.33373876    -0.22700
H1250       H  0.30161321  0.17510462  0.36199225     0.08400
C1251       C  0.38886726  0.15679784  0.35105818     0.04800
C1252       C  0.41493370  0.14037928  0.37211112    -0.19900
C1253       C  0.41328756  0.10285234  0.38084047    -0.12200
C1254       C  0.38297449  0.08203298  0.36712573     0.13500
C1255       C  0.35651115  0.09887201  0.34607815    -0.22700
C1256       C  0.39308491  0.19669652  0.34285984    -0.05700
H1257       H  0.43650602  0.15783621  0.38309873     0.15000
C1258       C  0.37713616  0.04262118  0.37427226    -0.15900
H1259       H  0.33329430  0.08309800  0.33585868     0.09300
H1260       H  0.24705874  0.24203934  0.32939365     0.07200
H1261       H  0.24692933  0.20866958  0.36234053     0.08400
H1262       H  0.21840309  0.20145852  0.32437957     0.07400
H1263       H  0.35724691  0.09844840  0.26815115     0.02300
H1264       H  0.38753850  0.13791710  0.26821176     0.02800
H1265       H  0.35675213  0.12853839  0.23217681     0.06300
H1266       H  0.41827051  0.20908258  0.35479190     0.05300
H1267       H  0.36915535  0.21252677  0.35309044    -0.00500
H1268       H  0.39484397  0.19934179  0.31414843     0.01000
H1269       H  0.35133866  0.03154220  0.36240812     0.04600
H1270       H  0.37475107  0.03960081  0.40284592     0.06600
H1271       H  0.39990160  0.02669724  0.36202009     0.07400
C1272       C  0.17865610  0.33826047  0.32634887    -0.22200
C1273       C  0.14338960  0.32747734  0.33637499     0.09800
C1274       C  0.12942560  0.29334340  0.32410588     0.10200
C1275       C  0.15156740  0.27026971  0.30286928    -0.17100
C1276       C  0.18633145  0.28156328  0.29077613    -0.27500
C1277       C  0.20018906  0.31619927  0.30335402     0.18500
C1278       C  0.12162869  0.35313429  0.35911027     0.12500
C1279       C  0.09043280  0.28214116  0.33162086    -0.11900
H1280       H  0.14076566  0.24361951  0.29453407     0.12800
C1281       C  0.23657960  0.33144661  0.29210002    -0.22700
H1282       H  0.18903913  0.36468782  0.33605064     0.08400
C1283       C  0.12062365  0.35022158  0.39563673     0.04800
C1284       C  0.10462295  0.37860906  0.41617500    -0.19900
C1285       C  0.09491091  0.41202692  0.40175248    -0.12200
C1286       C  0.08839112  0.41113683  0.36511805     0.13500
C1287       C  0.10306701  0.38218018  0.34411835    -0.22700
C1288       C  0.13849477  0.31867552  0.41322644    -0.05700
H1289       H  0.10126769  0.37522705  0.44382012     0.15000
C1290       C  0.06516130  0.43898581  0.34745846    -0.15900
H1291       H  0.10098720  0.38282676  0.31591979     0.09300
H1292       H  0.25926242  0.31672119  0.30462824     0.07200
H1293       H  0.23977221  0.36082213  0.30049481     0.08400
H1294       H  0.23898339  0.32971003  0.26323104     0.07400
H1295       H  0.07128497  0.30261403  0.32118503     0.02300
H1296       H  0.08584969  0.28060373  0.36007346     0.02800
H1297       H  0.08358291  0.25490040  0.31918479     0.06300
H1298       H  0.13612239  0.32159222  0.44212009     0.05300
H1299       H  0.16812093  0.31770567  0.40651627    -0.00500
H1300       H  0.12549022  0.29230762  0.40470160     0.01000
H1301       H  0.08080359  0.45148249  0.32612280     0.04600
H1302       H  0.05521762  0.46103609  0.36575090     0.06600
H1303       H  0.04075066  0.42496861  0.33568741     0.07400
loop_ 
_geom_bond_atom_site_label_1 
_geom_bond_atom_site_label_2 
_geom_bond_distance 
_geom_bond_site_symmetry_2 
_ccdc_geom_bond_type 
C1            C2   1.549       .  S
C1            C7   1.540       .  S
C1            C5   1.530       .  S
C1         C1189   1.546       .  S
C2            H9   1.081       .  S
C2            C3   1.362       .  D
C3            C4   1.536       .  S
C3         C1244   1.487       .  S
C4            C8   1.545       .  S
C4            C6   1.552       .  S
C4           H10   1.101       .  S
C5           H11   1.086       .  S
C5            C6   1.370       .  D
C6         C1276   1.508       .  S
C7           H12   1.086       .  S
C7            C8   1.369       .  D
C8         C1221   1.494       .  S
C13          C15   1.541       .  S
C13          C17   1.554       .  S
C13          C16   1.549       .  S
C13        C1285   1.546       .  S
C14          C18   1.547       .  S
C14          C20   1.524       .  S
C14          C19   1.547       .  S
C14        C1148   1.548       .  S
C15          C23   1.379       .  A
C15          C18   1.396       .  A
C16          C27   1.383       .  A
C16          C19   1.405       .  A
C17          C31   1.388       .  A
C17          C20   1.388       .  A
C18          C21   1.380       .  A
C19          C25   1.381       .  A
C20          C28   1.374       .  A
C21          N22   1.352       .  A
C21          H34   1.082       .  S
N22          C23   1.353       .  A
N22        C1116   1.430       .  S
C23          H24   1.080       .  S
C25          N26   1.361       .  A
C25          H35   1.080       .  S
N26          C27   1.361       .  A
N26         N108   1.416   1_455  S
C27          H33   1.081       .  S
C28          N29   1.350       .  A
C28          H30   1.083       .  S
N29          C31   1.356       .  A
N29        C1084   1.435       .  S
C31          H32   1.080       .  S
C36          C37   1.534       .  S
C36          C42   1.537       .  S
C36          C40   1.548       .  S
C36         C988   1.546       .  S
C37          H44   1.086       .  S
C37          C38   1.364       .  D
C38          C39   1.549       .  S
C38        C1052   1.496       .  S
C39          C43   1.549       .  S
C39          C41   1.549       .  S
C39          H45   1.106       .  S
C40          H46   1.081       .  S
C40          C41   1.370       .  D
C41        C1157   1.498       .  S
C42          H47   1.086       .  S
C42          C43   1.365       .  D
C43        C1029   1.499       .  S
C48          C50   1.543       .  S
C48          C52   1.551       .  S
C48          C51   1.591       .  S
C48        C1253   1.565       .  S
C49          C53   1.532       .  S
C49          C55   1.528       .  S
C49          C54   1.538       .  S
C49         C892   1.537       .  S
C50          C58   1.385       .  A
C50          C53   1.394       .  A
C51          C62   1.405       .  A
C51          C54   1.418       .  A
C52          C66   1.388       .  A
C52          C55   1.383       .  A
C53          C56   1.381       .  A
C54          C60   1.376       .  A
C55          C63   1.382       .  A
C56          N57   1.346       .  A
C56          H69   1.082       .  S
N57          C58   1.349       .  A
N57         C924   1.428       .  S
C58          H59   1.082       .  S
C60          N61   1.347   1_545  A
C60          H70   1.081       .  S
N61          C62   1.362   1_565  A
N61         N155   1.411       .  S
C62          H68   1.072       .  S
C63          N64   1.357       .  A
C63          H65   1.083       .  S
N64          C66   1.360       .  A
N64         C965   1.447       .  S
C66          H67   1.082       .  S
C71          C72   1.542       .  S
C71          C77   1.531       .  S
C71          C75   1.527       .  S
C71         C796   1.534       .  S
C72          H79   1.080       .  S
C72          C73   1.363       .  D
C73          C74   1.550       .  S
C73         C860   1.492       .  S
C74          C78   1.560       .  S
C74          C76   1.554       .  S
C74          H80   1.104       .  S
C75          H81   1.087       .  S
C75          C76   1.361       .  D
C76         C956   1.494       .  S
C77          H82   1.086       .  S
C77          C78   1.367       .  D
C78         C828   1.511       .  S
C83          C84   1.556       .  S
C83          C89   1.531       .  S
C83          C87   1.530       .  S
C83         C732   1.532       .  S
C84          H91   1.079       .  S
C84          C85   1.371       .  D
C85          C86   1.532       .  S
C85        C1093   1.484       .  S
C86          C90   1.540       .  S
C86          C88   1.540       .  S
C86          H92   1.110       .  S
C87          H93   1.087       .  S
C87          C88   1.361       .  D
C88         C933   1.482       .  S
C89          H94   1.087       .  S
C89          C90   1.359       .  D
C90         C773   1.478       .  S
C95          C97   1.546       .  S
C95          C99   1.545       .  S
C95          C98   1.546       .  S
C95         C636   1.547       .  S
C96         C100   1.530       .  S
C96         C102   1.528       .  S
C96         C101   1.560       .  S
C96         C869   1.546       .  S
C97         C105   1.385       .  A
C97         C100   1.390       .  A
C98         C109   1.375       .  A
C98         C101   1.413       .  A
C99         C113   1.383       .  A
C99         C102   1.390       .  A
C100        C103   1.374       .  A
C101        C107   1.391       .  A
C102        C110   1.374       .  A
C103        N104   1.351       .  A
C103        H116   1.083       .  S
N104        C105   1.352       .  A
N104        C700   1.428       .  S
C105        H106   1.080       .  S
C107        N108   1.363       .  A
C107        H117   1.079       .  S
N108        C109   1.357       .  A
C109        H115   1.082       .  S
C110        N111   1.349       .  A
C110        H112   1.081       .  S
N111        C113   1.356       .  A
N111        C677   1.429       .  S
C113        H114   1.077       .  S
C118        C119   1.549       .  S
C118        C124   1.541       .  S
C118        C122   1.536       .  S
C118        C540   1.532       .  S
C119        H126   1.081       .  S
C119        C120   1.363       .  D
C120        C121   1.536       .  S
C120        C604   1.474       .  S
C121        C125   1.537       .  S
C121        C123   1.531       .  S
C121        H127   1.111       .  S
C122        H128   1.086       .  S
C122        C123   1.360       .  D
C123        C709   1.477       .  S
C124        H129   1.086       .  S
C124        C125   1.364       .  D
C125        C581   1.485       .  S
C130        C131   1.531       .  S
C130        C136   1.540       .  S
C130        C134   1.551       .  S
C130        C485   1.534       .  S
C131        H138   1.086       .  S
C131        C132   1.361       .  D
C132        C133   1.540       .  S
C132        C901   1.479       .  S
C133        C137   1.542       .  S
C133        C135   1.536       .  S
C133        H139   1.109       .  S
C134        H140   1.082       .  S
C134        C135   1.364       .  D
C135        C668   1.484       .  S
C136        H141   1.085       .  S
C136        C137   1.365       .  D
C137        C508   1.492       .  S
C142        C144   1.535       .  S
C142        C146   1.554       .  S
C142        C145   1.570       .  S
C142       C1061   1.555       .  S
C143        C147   1.527       .  S
C143        C149   1.533       .  S
C143        C148   1.554       .  S
C143        C613   1.537       .  S
C144        C152   1.380       .  A
C144        C147   1.383       .  A
C145        C156   1.394       .  A
C145        C148   1.417       .  A
C146        C160   1.389       .  A
C146        C149   1.388       .  A
C147        C150   1.375       .  A
C148        C154   1.383       .  A
C149        C157   1.382       .  A
C150        N151   1.354       .  A
C150        H163   1.082       .  S
N151        C152   1.357       .  A
N151        C444   1.436       .  S
C152        H153   1.081       .  S
C154        N155   1.351       .  A
C154        H164   1.078       .  S
N155        C156   1.361       .  A
C156        H162   1.080       .  S
C157        N158   1.356       .  A
C157        H159   1.083       .  S
N158        C160   1.358       .  A
N158        C412   1.443       .  S
C160        H161   1.083       .  S
C165        C166   1.552       .  S
C165        C171   1.538       .  S
C165        C169   1.541       .  S
C165        C357   1.540       .  S
C166        H173   1.080       .  S
C166        C167   1.363       .  D
C167        C168   1.530       .  S
C167       C1125   1.478       .  S
C168        C172   1.539       .  S
C168        C170   1.535       .  S
C168        H174   1.111       .  S
C169        H175   1.085       .  S
C169        C170   1.365       .  D
C170        C453   1.482       .  S
C171        H176   1.086       .  S
C171        C172   1.363       .  D
C172        C380   1.483       .  S
C177        C178   1.535       .  S
C177        C183   1.533       .  S
C177        C181   1.543       .  S
C177        C284   1.541       .  S
C178        H185   1.087       .  S
C178        C179   1.368       .  D
C179        C180   1.552       .  S
C179        C645   1.501       .  S
C180        C184   1.553       .  S
C180        C182   1.548       .  S
C180        H186   1.110       .  S
C181        H187   1.079       .  S
C181        C182   1.363       .  D
C182        C421   1.497       .  S
C183        H188   1.086       .  S
C183        C184   1.364       .  D
C184        C316   1.495       .  S
C189        C191   1.549       .  S
C189        C193   1.560       .  S
C189        C192   1.559       .  S
C189        C837   1.550       .  S
C190        C194   1.532       .  S
C190        C196   1.533       .  S
C190        C195   1.554       .  S
C190        C389   1.542       .  S
C191        C199   1.387       .  A
C191        C194   1.389       .  A
C192        C203   1.390   1_554  A
C192        C195   1.410       .  A
C193        C207   1.397       .  A
C193        C196   1.390       .  A
C194        C197   1.375       .  A
C195        C201   1.389   1_554  A
C196        C204   1.379       .  A
C197        N198   1.351       .  A
C197        H210   1.083       .  S
N198        C199   1.356       .  A
N198        C572   1.435       .  S
C199        H200   1.081       .  S
C201        N202   1.356       .  A
C201        H211   1.078       .  S
N202        C203   1.362       .  A
N202        N225   1.415       .  S
C203        H209   1.081       .  S
C204        N205   1.354       .  A
C204        H206   1.083       .  S
N205        C207   1.361       .  A
N205       C1212   1.447       .  S
C207        H208   1.081       .  S
C212        C214   1.534       .  S
C212        C216   1.556       .  S
C212        C215   1.578       .  S
C212        C325   1.553       .  S
C213        C217   1.526       .  S
C213        C219   1.551       .  S
C213        C218   1.546       .  S
C213        C764   1.541       .  S
C214        C222   1.383       .  A
C214        C217   1.379       .  A
C215        C226   1.401       .  A
C215        C218   1.415       .  A
C216        C230   1.391       .  A
C216        C219   1.391       .  A
C217        C220   1.379       .  A
C218        C224   1.379       .  A
C219        C227   1.389       .  A
C220        N221   1.356       .  A
C220        H233   1.082       .  S
N221        C222   1.358       .  A
N221        C517   1.440       .  S
C222        H223   1.082       .  S
C224        N225   1.351       .  A
C224        H234   1.082       .  S
N225        C226   1.364       .  A
C226        H232   1.079       .  S
C227        N228   1.356       .  A
C227        H229   1.081       .  S
N228        C230   1.356       .  A
N228       C1020   1.445       .  S
C230        H231   1.082       .  S
N235        N236   1.321   1_556  A
N235        N241   1.317       .  A
N235       Mn264   2.208   1_455  S
N236        C243   1.353       .  A
N237        N239   1.314       .  A
N237        N238   1.321       .  A
N237       Mn253   2.200   1_545  S
N238        C244   1.354       .  A
N239        N240   1.315       .  A
N239       Mn264   2.177   1_455  S
N240        C244   1.348       .  A
N241        N242   1.320   1_556  A
N241       Mn253   2.206   1_545  S
N242        C243   1.353       .  A
C243       C1180   1.480       .  S
C244        C741   1.466       .  S
N245        N251   1.317       .  A
N245        N246   1.323       .  A
N245       Mn275   2.216   1_455  S
N246        C254   1.355       .  A
N247        N248   1.321   1_556  A
N247        N249   1.314       .  A
N247       Mn253   2.202       .  S
N248        C255   1.354       .  A
N249        N250   1.317   1_556  A
N249       Mn275   2.185   1_455  S
N250        C255   1.350       .  A
N251        N252   1.320       .  A
N251       Mn253   2.205       .  S
N252        C254   1.353       .  A
Mn253      Cl277   2.545   1_455  S
C254        C997   1.482       .  S
C255        C348   1.467       .  S
N256        N257   1.322       .  A
N256        N262   1.315       .  A
N256       Mn264   2.208       .  S
N257        C265   1.355       .  A
N258        N260   1.313       .  A
N258        N259   1.319   1_556  A
N258       Mn276   2.192   1_545  S
N259        C266   1.353       .  A
N260        N261   1.317   1_556  A
N260       Mn264   2.181       .  S
N261        C266   1.350       .  A
N262        N263   1.316       .  A
N262       Mn276   2.183   1_545  S
N263        C265   1.349       .  A
Mn264      Cl277   2.541   1_545  S
C265        C476   1.471       .  S
C266        C805   1.475       .  S
N267        N268   1.322   1_556  A
N267        N273   1.315       .  A
N267       Mn275   2.212       .  S
N268        C278   1.356       .  A
N269        N270   1.319       .  A
N269        N271   1.313       .  A
N269       Mn276   2.187       .  S
N270        C279   1.351       .  A
N271        N272   1.318       .  A
N271       Mn275   2.193       .  S
N272        C279   1.352       .  A
N273        N274   1.316   1_556  A
N273       Mn276   2.182       .  S
N274        C278   1.350       .  A
Mn275      Cl277   2.543       .  S
Mn276      Cl277   2.541       .  S
C278        C549   1.481       .  S
C279        C293   1.470       .  S
C280        C281   1.395       .  A
C280        C285   1.401       .  A
C280        H290   1.086       .  S
C281        C282   1.403       .  A
C281        C286   1.473       .  S
C282        C287   1.509       .  S
C282        C283   1.401       .  A
C283        C284   1.417       .  A
C283        H288   1.073       .  S
C284        C285   1.430       .  A
C285        C289   1.510       .  S
C286        C291   1.411       .  A
C286        C295   1.399       .  A
C287        H303   1.110       .  S
C287        H304   1.109       .  S
C287        H305   1.111       .  S
C289        H300   1.110       .  S
C289        H301   1.111       .  S
C289        H302   1.099       .  S
C291        C296   1.507       .  S
C291        C292   1.403       .  A
C292        C293   1.404       .  A
C292        H297   1.083       .  S
C293        C294   1.412       .  A
C294        C298   1.508       .  S
C294        C295   1.399       .  A
C295        H299   1.085       .  S
C296        H306   1.111       .  S
C296        H307   1.110       .  S
C296        H308   1.109       .  S
C298        H309   1.109       .  S
C298        H310   1.110       .  S
C298        H311   1.111       .  S
C312        C313   1.404       .  A
C312        C317   1.408       .  A
C312        H322   1.085       .  S
C313        C314   1.408       .  A
C313        C318   1.488       .  S
C314        C319   1.506       .  S
C314        C315   1.404       .  A
C315        C316   1.409       .  A
C315        H320   1.084       .  S
C316        C317   1.417       .  A
C317        C321   1.506       .  S
C318        C323   1.402       .  A
C318        C327   1.404       .  A
C319        H335   1.110       .  S
C319        H336   1.110       .  S
C319        H337   1.111       .  S
C321        H332   1.110       .  S
C321        H333   1.110       .  S
C321        H334   1.104       .  S
C323        C328   1.509       .  S
C323        C324   1.396       .  A
C324        C325   1.418       .  A
C324        H329   1.083       .  S
C325        C326   1.425       .  A
C326        C330   1.501       .  S
C326        C327   1.416       .  A
C327        H331   1.084       .  S
C328        H338   1.111       .  S
C328        H339   1.110       .  S
C328        H340   1.110       .  S
C330        H341   1.111       .  S
C330        H342   1.104       .  S
C330        H343   1.110       .  S
C344        C345   1.399       .  A
C344        C349   1.400       .  A
C344        H354   1.085       .  S
C345        C346   1.411       .  A
C345        C350   1.474       .  S
C346        C351   1.506       .  S
C346        C347   1.403       .  A
C347        C348   1.400       .  A
C347        H352   1.083       .  S
C348        C349   1.414       .  A
C349        C353   1.508   1_554  S
C350        C355   1.403       .  A
C350        C359   1.394       .  A
C351        H367   1.110       .  S
C351        H368   1.110       .  S
C351        H369   1.111       .  S
C353        H364   1.109       .  S
C353        H365   1.111       .  S
C353        H366   1.110       .  S
C355        C360   1.509       .  S
C355        C356   1.400       .  A
C356        C357   1.415       .  A
C356        H361   1.075       .  S
C357        C358   1.431       .  A
C358        C362   1.510       .  S
C358        C359   1.402       .  A
C359        H363   1.085       .  S
C360        H370   1.111       .  S
C360        H371   1.110       .  S
C360        H372   1.110       .  S
C362        H373   1.110       .  S
C362        H374   1.099       .  S
C362        H375   1.111       .  S
C376        C377   1.401       .  A
C376        C381   1.404       .  A
C376        H386   1.084       .  S
C377        C378   1.411       .  A
C377        C382   1.481       .  S
C378        C383   1.507       .  S
C378        C379   1.403       .  A
C379        C380   1.402       .  A
C379        H384   1.080       .  S
C380        C381   1.416       .  A
C381        C385   1.505       .  S
C382        C387   1.407       .  A
C382        C391   1.391       .  A
C383        H399   1.110       .  S
C383        H400   1.110       .  S
C383        H401   1.111       .  S
C385        H396   1.110       .  S
C385        H397   1.110       .  S
C385        H398   1.103       .  S
C387        C392   1.505       .  S
C387        C388   1.410       .  A
C388        C389   1.411       .  A
C388        H393   1.075       .  S
C389        C390   1.436       .  A
C390        C394   1.514       .  S
C390        C391   1.396       .  A
C391        H395   1.086       .  S
C392        H402   1.111   1_554  S
C392        H403   1.110       .  S
C392        H404   1.110       .  S
C394        H405   1.111       .  S
C394        H406   1.101       .  S
C394        H407   1.110       .  S
C408        C409   1.404       .  A
C408        C413   1.407       .  A
C408        H418   1.085       .  S
C409        C410   1.411       .  A
C409        C414   1.490       .  S
C410        C415   1.505       .  S
C410        C411   1.408       .  A
C411        C412   1.405       .  A
C411        H416   1.083       .  S
C412        C413   1.415       .  A
C413        C417   1.506       .  S
C414        C419   1.410       .  A
C414        C423   1.403       .  A
C415        H431   1.111       .  S
C415        H432   1.110       .  S
C415        H433   1.110       .  S
C417        H428   1.110       .  S
C417        H429   1.110       .  S
C417        H430   1.107       .  S
C419        C424   1.507       .  S
C419        C420   1.404       .  A
C420        C421   1.408       .  A
C420        H425   1.084       .  S
C421        C422   1.420       .  A
C422        C426   1.505       .  S
C422        C423   1.411       .  A
C423        H427   1.085       .  S
C424        H434   1.110       .  S
C424        H435   1.111       .  S
C424        H436   1.110       .  S
C426        H437   1.110       .  S
C426        H438   1.100       .  S
C426        H439   1.110       .  S
C440        C441   1.401       .  A
C440        C445   1.404       .  A
C440        H450   1.084       .  S
C441        C442   1.409       .  A
C441        C446   1.477       .  S
C442        C447   1.506       .  S
C442        C443   1.401       .  A
C443        C444   1.403       .  A
C443        H448   1.083       .  S
C444        C445   1.414       .  A
C445        C449   1.506       .  S
C446        C451   1.409       .  A
C446        C455   1.401       .  A
C447        H463   1.110       .  S
C447        H464   1.110       .  S
C447        H465   1.111       .  S
C449        H460   1.108       .  S
C449        H461   1.111       .  S
C449        H462   1.111       .  S
C451        C456   1.506       .  S
C451        C452   1.402       .  A
C452        C453   1.404       .  A
C452        H457   1.081       .  S
C453        C454   1.414       .  A
C454        C458   1.506       .  S
C454        C455   1.403       .  A
C455        H459   1.084       .  S
C456        H466   1.111       .  S
C456        H467   1.110       .  S
C456        H468   1.110       .  S
C458        H469   1.107       .  S
C458        H470   1.109       .  S
C458        H471   1.111       .  S
C472        C473   1.399       .  A
C472        C477   1.403       .  A
C472        H482   1.085       .  S
C473        C474   1.411       .  A
C473        C478   1.474       .  S
C474        C479   1.507       .  S
C474        C475   1.401       .  A
C475        C476   1.401       .  A
C475        H480   1.084       .  S
C476        C477   1.416       .  A
C477        C481   1.508       .  S
C478        C483   1.404       .  A
C478        C487   1.396       .  A
C479        H495   1.111       .  S
C479        H496   1.109       .  S
C479        H497   1.110       .  S
C481        H492   1.111   1_545  S
C481        H493   1.109   1_545  S
C481        H494   1.111       .  S
C483        C488   1.507       .  S
C483        C484   1.400       .  A
C484        C485   1.413       .  A
C484        H489   1.077       .  S
C485        C486   1.428       .  A
C486        C490   1.511       .  S
C486        C487   1.402       .  A
C487        H491   1.085       .  S
C488        H498   1.111       .  S
C488        H499   1.110       .  S
C488        H500   1.109       .  S
C490        H501   1.111       .  S
C490        H502   1.104       .  S
C490        H503   1.111       .  S
C504        C505   1.402       .  A
C504        C509   1.406       .  A
C504        H514   1.084       .  S
C505        C506   1.409       .  A
C505        C510   1.484       .  S
C506        C511   1.507       .  S
C506        C507   1.402       .  A
C507        C508   1.407       .  A
C507        H512   1.084       .  S
C508        C509   1.418       .  A
C509        C513   1.506       .  S
C510        C515   1.412       .  A
C510        C519   1.401       .  A
C511        H527   1.110       .  S
C511        H528   1.110       .  S
C511        H529   1.111       .  S
C513        H524   1.110       .  S
C513        H525   1.111       .  S
C513        H526   1.104       .  S
C515        C520   1.506       .  S
C515        C516   1.406       .  A
C516        C517   1.403       .  A
C516        H521   1.083       .  S
C517        C518   1.415       .  A
C518        C522   1.506       .  S
C518        C519   1.404       .  A
C519        H523   1.085       .  S
C520        H530   1.110       .  S
C520        H531   1.110       .  S
C520        H532   1.111       .  S
C522        H533   1.107       .  S
C522        H534   1.111       .  S
C522        H535   1.111       .  S
C536        C537   1.395       .  A
C536        C541   1.399       .  A
C536        H546   1.085       .  S
C537        C538   1.406       .  A
C537        C542   1.475       .  S
C538        C543   1.508       .  S
C538        C539   1.400       .  A
C539        C540   1.412       .  A
C539        H544   1.076       .  S
C540        C541   1.430       .  A
C541        C545   1.513       .  S
C542        C547   1.409       .  A
C542        C551   1.398       .  A
C543        H559   1.109       .  S
C543        H560   1.111       .  S
C543        H561   1.111       .  S
C545        H556   1.111       .  S
C545        H557   1.102       .  S
C545        H558   1.110       .  S
C547        C552   1.506       .  S
C547        C548   1.404       .  A
C548        C549   1.406       .  A
C548        H553   1.084       .  S
C549        C550   1.420       .  A
C550        C554   1.509       .  S
C550        C551   1.398       .  A
C551        H555   1.085       .  S
C552        H562   1.111       .  S
C552        H563   1.109       .  S
C552        H564   1.111       .  S
C554        H565   1.111       .  S
C554        H566   1.110       .  S
C554        H567   1.110       .  S
C568        C569   1.400       .  A
C568        C573   1.401       .  A
C568        H578   1.084       .  S
C569        C570   1.413       .  A
C569        C574   1.481       .  S
C570        C575   1.506       .  S
C570        C571   1.406       .  A
C571        C572   1.402       .  A
C571        H576   1.084       .  S
C572        C573   1.412       .  A
C573        C577   1.506       .  S
C574        C579   1.410       .  A
C574        C583   1.402       .  A
C575        H591   1.110       .  S
C575        H592   1.110       .  S
C575        H593   1.111       .  S
C577        H588   1.111       .  S
C577        H589   1.109       .  S
C577        H590   1.110       .  S
C579        C584   1.507       .  S
C579        C580   1.401       .  A
C580        C581   1.406       .  A
C580        H585   1.084       .  S
C581        C582   1.415       .  A
C582        C586   1.506       .  S
C582        C583   1.404       .  A
C583        H587   1.083       .  S
C584        H594   1.111       .  S
C584        H595   1.109       .  S
C584        H596   1.110       .  S
C586        H597   1.111       .  S
C586        H598   1.105       .  S
C586        H599   1.110       .  S
C600        C601   1.403       .  A
C600        C605   1.405       .  A
C600        H610   1.084       .  S
C601        C602   1.412       .  A
C601        C606   1.479       .  S
C602        C607   1.508       .  S
C602        C603   1.397       .  A
C603        C604   1.399       .  A
C603        H608   1.084       .  S
C604        C605   1.416       .  A
C605        C609   1.507       .  S
C606        C611   1.406       .  A
C606        C615   1.394       .  A
C607        H623   1.108       .  S
C607        H624   1.110       .  S
C607        H625   1.111       .  S
C609        H620   1.111       .  S
C609        H621   1.110       .  S
C609        H622   1.107       .  S
C611        C616   1.506       .  S
C611        C612   1.408       .  A
C612        C613   1.412       .  A
C612        H617   1.072       .  S
C613        C614   1.431       .  A
C614        C618   1.514       .  S
C614        C615   1.395       .  A
C615        H619   1.087       .  S
C616        H626   1.111       .  S
C616        H627   1.110       .  S
C616        H628   1.110       .  S
C618        H629   1.111       .  S
C618        H630   1.102       .  S
C618        H631   1.111       .  S
C632        C633   1.405       .  A
C632        C637   1.409       .  A
C632        H642   1.084       .  S
C633        C634   1.412       .  A
C633        C638   1.492       .  S
C634        C639   1.508       .  S
C634        C635   1.406       .  A
C635        C636   1.407       .  A
C635        H640   1.081       .  S
C636        C637   1.418       .  A
C637        C641   1.507       .  S
C638        C643   1.417       .  A
C638        C647   1.400       .  A
C639        H655   1.110       .  S
C639        H656   1.107       .  S
C639        H657   1.111       .  S
C641        H652   1.108       .  S
C641        H653   1.110       .  S
C641        H654   1.108       .  S
C643        C648   1.509       .  S
C643        C644   1.409       .  A
C644        C645   1.404       .  A
C644        H649   1.083       .  S
C645        C646   1.423       .  A
C646        C650   1.506       .  S
C646        C647   1.406       .  A
C647        H651   1.085       .  S
C648        H658   1.111       .  S
C648        H659   1.110       .  S
C648        H660   1.107       .  S
C650        H661   1.111       .  S
C650        H662   1.105       .  S
C650        H663   1.110       .  S
C664        C665   1.399       .  A
C664        C669   1.400       .  A
C664        H674   1.084       .  S
C665        C666   1.410       .  A
C665        C670   1.477       .  S
C666        C671   1.506       .  S
C666        C667   1.404       .  A
C667        C668   1.406       .  A
C667        H672   1.085       .  S
C668        C669   1.414       .  A
C669        C673   1.504       .  S
C670        C675   1.412       .  A
C670        C679   1.401       .  A
C671        H687   1.110       .  S
C671        H688   1.110       .  S
C671        H689   1.111       .  S
C673        H684   1.106       .  S
C673        H685   1.111       .  S
C673        H686   1.109       .  S
C675        C680   1.506       .  S
C675        C676   1.402       .  A
C676        C677   1.399       .  A
C676        H681   1.084       .  S
C677        C678   1.413       .  A
C678        C682   1.506       .  S
C678        C679   1.400       .  A
C679        H683   1.085       .  S
C680        H690   1.111       .  S
C680        H691   1.109       .  S
C680        H692   1.110       .  S
C682        H693   1.110       .  S
C682        H694   1.107       .  S
C682        H695   1.110       .  S
C696        C697   1.399       .  A
C696        C701   1.397       .  A
C696        H706   1.086       .  S
C697        C698   1.411       .  A
C697        C702   1.474       .  S
C698        C703   1.505       .  S
C698        C699   1.403       .  A
C699        C700   1.400       .  A
C699        H704   1.084       .  S
C700        C701   1.412       .  A
C701        C705   1.506       .  S
C702        C707   1.410       .  A
C702        C711   1.398       .  A
C703        H719   1.110       .  S
C703        H720   1.110       .  S
C703        H721   1.111       .  S
C705        H716   1.111       .  S
C705        H717   1.110       .  S
C705        H718   1.108       .  S
C707        C712   1.506       .  S
C707        C708   1.402       .  A
C708        C709   1.402       .  A
C708        H713   1.085       .  S
C709        C710   1.413       .  A
C710        C714   1.503       .  S
C710        C711   1.399       .  A
C711        H715   1.084       .  S
C712        H722   1.111       .  S
C712        H723   1.110       .  S
C712        H724   1.110       .  S
C714        H725   1.111       .  S
C714        H726   1.110       .  S
C714        H727   1.107       .  S
C728        C729   1.393       .  A
C728        C733   1.398       .  A
C728        H738   1.086       .  S
C729        C730   1.405       .  A
C729        C734   1.472       .  S
C730        C735   1.508       .  S
C730        C731   1.401       .  A
C731        C732   1.414       .  A
C731        H736   1.074       .  S
C732        C733   1.431       .  A
C733        C737   1.514       .  S
C734        C739   1.411       .  A
C734        C743   1.398       .  A
C735        H751   1.110       .  S
C735        H752   1.110       .  S
C735        H753   1.111       .  S
C737        H748   1.111       .  S
C737        H749   1.111       .  S
C737        H750   1.101       .  S
C739        C744   1.506       .  S
C739        C740   1.403       .  A
C740        C741   1.401       .  A
C740        H745   1.084       .  S
C741        C742   1.415       .  A
C742        C746   1.509       .  S
C742        C743   1.397       .  A
C743        H747   1.085       .  S
C744        H754   1.111       .  S
C744        H755   1.110       .  S
C744        H756   1.110       .  S
C746        H757   1.111       .  S
C746        H758   1.111       .  S
C746        H759   1.109       .  S
C760        C761   1.399       .  A
C760        C765   1.409       .  A
C760        H770   1.085       .  S
C761        C762   1.403       .  A
C761        C766   1.479       .  S
C762        C767   1.511       .  S
C762        C763   1.394       .  A
C763        C764   1.413       .  A
C763        H768   1.075       .  S
C764        C765   1.432       .  A
C765        C769   1.509       .  S
C766        C771   1.412       .  A
C766        C775   1.400       .  A
C767        H783   1.110       .  S
C767        H784   1.110       .  S
C767        H785   1.111       .  S
C769        H780   1.111       .  S
C769        H781   1.110       .  S
C769        H782   1.103       .  S
C771        C776   1.508       .  S
C771        C772   1.400       .  A
C772        C773   1.399       .  A
C772        H777   1.078       .  S
C773        C774   1.418       .  A
C774        C778   1.508       .  S
C774        C775   1.402       .  A
C775        H779   1.085       .  S
C776        H786   1.111       .  S
C776        H787   1.109       .  S
C776        H788   1.111       .  S
C778        H789   1.110       .  S
C778        H790   1.105       .  S
C778        H791   1.111       .  S
C792        C793   1.394       .  A
C792        C797   1.399       .  A
C792        H802   1.085       .  S
C793        C794   1.405       .  A
C793        C798   1.472       .  S
C794        C799   1.509       .  S
C794        C795   1.399       .  A
C795        C796   1.413       .  A
C795        H800   1.073       .  S
C796        C797   1.431       .  A
C797        C801   1.513       .  S
C798        C803   1.408       .  A
C798        C807   1.398       .  A
C799        H815   1.110       .  S
C799        H816   1.110       .  S
C799        H817   1.110       .  S
C801        H812   1.111       .  S
C801        H813   1.110       .  S
C801        H814   1.102       .  S
C803        C808   1.507       .  S
C803        C804   1.400       .  A
C804        C805   1.404       .  A
C804        H809   1.084       .  S
C805        C806   1.419       .  A
C806        C810   1.508       .  S
C806        C807   1.399       .  A
C807        H811   1.085       .  S
C808        H818   1.111       .  S
C808        H819   1.110       .  S
C808        H820   1.110       .  S
C810        H821   1.111       .  S
C810        H822   1.111   1_554  S
C810        H823   1.109       .  S
C824        C825   1.405       .  A
C824        C829   1.409       .  A
C824        H834   1.084       .  S
C825        C826   1.412       .  A
C825        C830   1.500       .  S
C826        C831   1.508       .  S
C826        C827   1.408       .  A
C827        C828   1.415       .  A
C827        H832   1.084       .  S
C828        C829   1.418       .  A
C829        C833   1.505       .  S
C830        C835   1.415       .  A
C830        C839   1.406       .  A
C831        H847   1.107       .  S
C831        H848   1.111       .  S
C831        H849   1.111       .  S
C833        H844   1.108       .  S
C833        H845   1.111       .  S
C833        H846   1.106       .  S
C835        C840   1.508       .  S
C835        C836   1.407       .  A
C836        C837   1.407       .  A
C836        H841   1.080       .  S
C837        C838   1.422       .  A
C838        C842   1.508       .  S
C838        C839   1.409       .  A
C839        H843   1.083       .  S
C840        H850   1.110       .  S
C840        H851   1.108       .  S
C840        H852   1.111       .  S
C842        H853   1.109       .  S
C842        H854   1.107       .  S
C842        H855   1.110       .  S
C856        C857   1.405       .  A
C856        C861   1.408       .  A
C856        H866   1.084       .  S
C857        C858   1.411       .  A
C857        C862   1.488       .  S
C858        C863   1.508       .  S
C858        C859   1.405       .  A
C859        C860   1.407       .  A
C859        H864   1.084       .  S
C860        C861   1.416       .  A
C861        C865   1.506       .  S
C862        C867   1.413       .  A
C862        C871   1.389       .  A
C863        H879   1.110       .  S
C863        H880   1.107       .  S
C863        H881   1.111       .  S
C865        H876   1.110       .  S
C865        H877   1.111       .  S
C865        H878   1.104       .  S
C867        C872   1.506       .  S
C867        C868   1.416       .  A
C868        C869   1.410       .  A
C868        H873   1.076       .  S
C869        C870   1.440       .  A
C870        C874   1.518       .  S
C870        C871   1.395       .  A
C871        H875   1.086       .  S
C872        H882   1.111       .  S
C872        H883   1.110       .  S
C872        H884   1.107       .  S
C874        H885   1.111       .  S
C874        H886   1.100       .  S
C874        H887   1.111       .  S
C888        C889   1.399       .  A
C888        C893   1.408       .  A
C888        H898   1.085       .  S
C889        C890   1.403       .  A
C889        C894   1.473       .  S
C890        C895   1.511       .  S
C890        C891   1.392       .  A
C891        C892   1.413       .  A
C891        H896   1.080       .  S
C892        C893   1.427       .  A
C893        C897   1.509       .  S
C894        C899   1.408       .  A
C894        C903   1.399       .  A
C895        H911   1.110       .  S
C895        H912   1.110       .  S
C895        H913   1.111       .  S
C897        H908   1.110       .  S
C897        H909   1.110       .  S
C897        H910   1.104       .  S
C899        C904   1.505       .  S
C899        C900   1.403       .  A
C900        C901   1.405       .  A
C900        H905   1.084       .  S
C901        C902   1.413       .  A
C902        C906   1.505       .  S
C902        C903   1.399       .  A
C903        H907   1.084       .  S
C904        H914   1.111       .  S
C904        H915   1.111       .  S
C904        H916   1.110       .  S
C906        H917   1.111       .  S
C906        H918   1.109       .  S
C906        H919   1.107       .  S
C920        C921   1.401       .  A
C920        C925   1.400       .  A
C920        H930   1.085       .  S
C921        C922   1.409       .  A
C921        C926   1.472       .  S
C922        C927   1.506       .  S
C922        C923   1.401       .  A
C923        C924   1.401       .  A
C923        H928   1.084       .  S
C924        C925   1.411       .  A
C925        C929   1.505       .  S
C926        C931   1.407       .  A
C926        C935   1.401       .  A
C927        H943   1.110       .  S
C927        H944   1.110       .  S
C927        H945   1.111       .  S
C929        H940   1.110       .  S
C929        H941   1.111       .  S
C929        H942   1.109       .  S
C931        C936   1.506       .  S
C931        C932   1.399       .  A
C932        C933   1.407       .  A
C932        H937   1.084       .  S
C933        C934   1.411       .  A
C934        C938   1.501       .  S
C934        C935   1.402       .  A
C935        H939   1.084       .  S
C936        H946   1.111       .  S
C936        H947   1.110       .  S
C936        H948   1.110       .  S
C938        H949   1.111       .  S
C938        H950   1.110       .  S
C938        H951   1.108       .  S
C952        C953   1.407       .  A
C952        C957   1.413       .  A
C952        H962   1.084       .  S
C953        C954   1.411       .  A
C953        C958   1.495       .  S
C954        C959   1.506       .  S
C954        C955   1.405       .  A
C955        C956   1.406       .  A
C955        H960   1.085       .  S
C956        C957   1.414       .  A
C957        C961   1.505       .  S
C958        C963   1.414       .  A
C958        C967   1.403       .  A
C959        H975   1.110       .  S
C959        H976   1.110       .  S
C959        H977   1.111       .  S
C961        H972   1.110       .  S
C961        H973   1.109       .  S
C961        H974   1.110       .  S
C963        C968   1.506       .  S
C963        C964   1.410       .  A
C964        C965   1.404       .  A
C964        H969   1.084       .  S
C965        C966   1.417       .  A
C966        C970   1.506       .  S
C966        C967   1.410       .  A
C967        H971   1.084       .  S
C968        H978   1.111       .  S
C968        H979   1.110       .  S
C968        H980   1.110       .  S
C970        H981   1.111       .  S
C970        H982   1.110       .  S
C970        H983   1.108       .  S
C984        C985   1.395       .  A
C984        C989   1.404       .  A
C984        H994   1.084       .  S
C985        C986   1.406       .  A
C985        C990   1.485       .  S
C986        C991   1.508       .  S
C986        C987   1.407       .  A
C987        C988   1.417       .  A
C987        H992   1.075       .  S
C988        C989   1.432       .  A
C989        C993   1.512       .  S
C990        C995   1.411       .  A
C990        C999   1.401       .  A
C991       H1007   1.110       .  S
C991       H1008   1.109       .  S
C991       H1009   1.111       .  S
C993       H1004   1.110       .  S
C993       H1005   1.110       .  S
C993       H1006   1.102       .  S
C995       C1000   1.507       .  S
C995        C996   1.406       .  A
C996        C997   1.405       .  A
C996       H1001   1.084       .  S
C997        C998   1.419       .  A
C998       C1002   1.509       .  S
C998        C999   1.406       .  A
C999       H1003   1.084       .  S
C1000      H1010   1.110       .  S
C1000      H1011   1.111       .  S
C1000      H1012   1.109       .  S
C1002      H1013   1.111       .  S
C1002      H1014   1.106       .  S
C1002      H1015   1.110       .  S
C1016      C1017   1.402       .  A
C1016      C1021   1.406       .  A
C1016      H1026   1.084       .  S
C1017      C1018   1.416       .  A
C1017      C1022   1.496       .  S
C1018      C1023   1.505       .  S
C1018      C1019   1.413       .  A
C1019      C1020   1.404       .  A
C1019      H1024   1.084       .  S
C1020      C1021   1.417       .  A
C1021      C1025   1.506       .  S
C1022      C1027   1.414       .  A
C1022      C1031   1.401       .  A
C1023      H1039   1.110       .  S
C1023      H1040   1.110       .  S
C1023      H1041   1.111       .  S
C1025      H1036   1.110       .  S
C1025      H1037   1.111       .  S
C1025      H1038   1.108       .  S
C1027      C1032   1.505       .  S
C1027      C1028   1.413       .  A
C1028      C1029   1.406       .  A
C1028      H1033   1.084       .  S
C1029      C1030   1.422       .  A
C1030      C1034   1.508       .  S
C1030      C1031   1.406       .  A
C1031      H1035   1.085       .  S
C1032      H1042   1.111       .  S
C1032      H1043   1.110       .  S
C1032      H1044   1.110       .  S
C1034      H1045   1.111       .  S
C1034      H1046   1.106       .  S
C1034      H1047   1.110       .  S
C1048      C1049   1.406       .  A
C1048      C1053   1.412       .  A
C1048      H1058   1.084       .  S
C1049      C1050   1.410       .  A
C1049      C1054   1.493       .  S
C1050      C1055   1.506       .  S
C1050      C1051   1.406       .  A
C1051      C1052   1.407       .  A
C1051      H1056   1.084       .  S
C1052      C1053   1.417       .  A
C1053      C1057   1.507       .  S
C1054      C1059   1.403       .  A
C1054      C1063   1.404       .  A
C1055      H1071   1.111       .  S
C1055      H1072   1.110       .  S
C1055      H1073   1.111       .  S
C1057      H1068   1.107       .  S
C1057      H1069   1.111       .  S
C1057      H1070   1.110       .  S
C1059      C1064   1.509       .  S
C1059      C1060   1.399       .  A
C1060      C1061   1.417       .  A
C1060      H1065   1.078       .  S
C1061      C1062   1.430       .  A
C1062      C1066   1.506       .  S
C1062      C1063   1.418       .  A
C1063      H1067   1.084       .  S
C1064      H1074   1.111       .  S
C1064      H1075   1.110       .  S
C1064      H1076   1.110       .  S
C1066      H1077   1.111       .  S
C1066      H1078   1.103       .  S
C1066      H1079   1.110       .  S
C1080      C1081   1.401       .  A
C1080      C1085   1.404       .  A
C1080      H1090   1.084       .  S
C1081      C1082   1.409       .  A
C1081      C1086   1.475       .  S
C1082      C1087   1.507       .  S
C1082      C1083   1.397       .  A
C1083      C1084   1.402       .  A
C1083      H1088   1.084       .  S
C1084      C1085   1.416       .  A
C1085      C1089   1.506       .  S
C1086      C1091   1.408       .  A
C1086      C1095   1.401       .  A
C1087      H1103   1.110       .  S
C1087      H1104   1.110       .  S
C1087      H1105   1.111       .  S
C1089      H1100   1.110       .  S
C1089      H1101   1.111       .  S
C1089      H1102   1.107       .  S
C1091      C1096   1.507       .  S
C1091      C1092   1.399       .  A
C1092      C1093   1.405       .  A
C1092      H1097   1.080       .  S
C1093      C1094   1.415       .  A
C1094      C1098   1.506       .  S
C1094      C1095   1.404       .  A
C1095      H1099   1.084       .  S
C1096      H1106   1.111       .  S
C1096      H1107   1.111       .  S
C1096      H1108   1.110       .  S
C1098      H1109   1.111       .  S
C1098      H1110   1.108       .  S
C1098      H1111   1.107       .  S
C1112      C1113   1.400       .  A
C1112      C1117   1.400       .  A
C1112      H1122   1.084       .  S
C1113      C1114   1.410       .  A
C1113      C1118   1.473       .  S
C1114      C1119   1.507       .  S
C1114      C1115   1.401       .  A
C1115      C1116   1.400       .  A
C1115      H1120   1.083       .  S
C1116      C1117   1.413       .  A
C1117      C1121   1.505       .  S
C1118      C1123   1.408       .  A
C1118      C1127   1.398       .  A
C1119      H1135   1.110       .  S
C1119      H1136   1.110       .  S
C1119      H1137   1.111       .  S
C1121      H1132   1.110       .  S
C1121      H1133   1.110       .  S
C1121      H1134   1.107       .  S
C1123      C1128   1.506       .  S
C1123      C1124   1.402       .  A
C1124      C1125   1.403       .  A
C1124      H1129   1.080       .  S
C1125      C1126   1.419       .  A
C1126      C1130   1.509       .  S
C1126      C1127   1.398       .  A
C1127      H1131   1.085       .  S
C1128      H1138   1.111       .  S
C1128      H1139   1.110       .  S
C1128      H1140   1.110       .  S
C1130      H1141   1.110       .  S
C1130      H1142   1.105       .  S
C1130      H1143   1.111       .  S
C1144      C1145   1.402       .  A
C1144      C1149   1.414       .  A
C1144      H1154   1.084       .  S
C1145      C1146   1.402       .  A
C1145      C1150   1.488       .  S
C1146      C1151   1.509       .  S
C1146      C1147   1.398       .  A
C1147      C1148   1.418       .  A
C1147      H1152   1.077       .  S
C1148      C1149   1.431       .  A
C1149      C1153   1.508       .  S
C1150      C1155   1.408       .  A
C1150      C1159   1.404       .  A
C1151      H1167   1.110       .  S
C1151      H1168   1.110       .  S
C1151      H1169   1.111       .  S
C1153      H1164   1.110       .  S
C1153      H1165   1.111       .  S
C1153      H1166   1.102       .  S
C1155      C1160   1.506       .  S
C1155      C1156   1.405       .  A
C1156      C1157   1.409       .  A
C1156      H1161   1.084       .  S
C1157      C1158   1.417       .  A
C1158      C1162   1.506       .  S
C1158      C1159   1.409       .  A
C1159      H1163   1.084       .  S
C1160      H1170   1.110       .  S
C1160      H1171   1.110       .  S
C1160      H1172   1.110       .  S
C1162      H1173   1.111       .  S
C1162      H1174   1.108       .  S
C1162      H1175   1.107       .  S
C1176      C1177   1.399       .  A
C1176      C1181   1.401       .  A
C1176      H1186   1.085       .  S
C1177      C1178   1.410       .  A
C1177      C1182   1.481       .  S
C1178      C1183   1.506       .  S
C1178      C1179   1.406       .  A
C1179      C1180   1.406       .  A
C1179      H1184   1.084       .  S
C1180      C1181   1.419       .  A
C1181      C1185   1.508       .  S
C1182      C1187   1.405       .  A
C1182      C1191   1.396       .  A
C1183      H1199   1.110       .  S
C1183      H1200   1.110       .  S
C1183      H1201   1.111       .  S
C1185      H1196   1.110       .  S
C1185      H1197   1.111       .  S
C1185      H1198   1.105   1_554  S
C1187      C1192   1.508       .  S
C1187      C1188   1.402       .  A
C1188      C1189   1.416       .  A
C1188      H1193   1.075       .  S
C1189      C1190   1.431       .  A
C1190      C1194   1.509       .  S
C1190      C1191   1.406       .  A
C1191      H1195   1.085       .  S
C1192      H1202   1.111       .  S
C1192      H1203   1.110       .  S
C1192      H1204   1.110       .  S
C1194      H1205   1.110       .  S
C1194      H1206   1.099       .  S
C1194      H1207   1.111       .  S
C1208      C1209   1.402       .  A
C1208      C1213   1.407       .  A
C1208      H1218   1.085       .  S
C1209      C1210   1.414       .  A
C1209      C1214   1.493       .  S
C1210      C1215   1.506       .  S
C1210      C1211   1.410       .  A
C1211      C1212   1.404       .  A
C1211      H1216   1.083       .  S
C1212      C1213   1.418       .  A
C1213      C1217   1.504       .  S
C1214      C1219   1.414       .  A
C1214      C1223   1.401       .  A
C1215      H1231   1.110       .  S
C1215      H1232   1.109       .  S
C1215      H1233   1.111       .  S
C1217      H1228   1.110       .  S
C1217      H1229   1.111       .  S
C1217      H1230   1.106       .  S
C1219      C1224   1.505       .  S
C1219      C1220   1.411       .  A
C1220      C1221   1.405       .  A
C1220      H1225   1.084       .  S
C1221      C1222   1.418       .  A
C1222      C1226   1.506       .  S
C1222      C1223   1.405       .  A
C1223      H1227   1.085       .  S
C1224      H1234   1.111       .  S
C1224      H1235   1.110       .  S
C1224      H1236   1.108       .  S
C1226      H1237   1.111       .  S
C1226      H1238   1.106       .  S
C1226      H1239   1.110       .  S
C1240      C1241   1.404       .  A
C1240      C1245   1.407       .  A
C1240      H1250   1.084       .  S
C1241      C1242   1.411       .  A
C1241      C1246   1.488       .  S
C1242      C1247   1.506       .  S
C1242      C1243   1.405       .  A
C1243      C1244   1.405       .  A
C1243      H1248   1.084       .  S
C1244      C1245   1.413       .  A
C1245      C1249   1.507       .  S
C1246      C1251   1.402       .  A
C1246      C1255   1.400       .  A
C1247      H1263   1.110       .  S
C1247      H1264   1.110       .  S
C1247      H1265   1.111       .  S
C1249      H1260   1.108       .  S
C1249      H1261   1.111       .  S
C1249      H1262   1.111       .  S
C1251      C1256   1.509       .  S
C1251      C1252   1.399       .  A
C1252      C1253   1.423       .  A
C1252      H1257   1.083       .  S
C1253      C1254   1.425       .  A
C1254      C1258   1.489       .  S
C1254      C1255   1.415       .  A
C1255      H1259   1.085       .  S
C1256      H1266   1.111       .  S
C1256      H1267   1.110       .  S
C1256      H1268   1.110       .  S
C1258      H1269   1.111       .  S
C1258      H1270   1.108       .  S
C1258      H1271   1.107       .  S
C1272      C1273   1.401       .  A
C1272      C1277   1.408       .  A
C1272      H1282   1.085       .  S
C1273      C1274   1.405       .  A
C1273      C1278   1.483       .  S
C1274      C1279   1.508       .  S
C1274      C1275   1.403       .  A
C1275      C1276   1.415       .  A
C1275      H1280   1.082       .  S
C1276      C1277   1.423       .  A
C1277      C1281   1.506       .  S
C1278      C1283   1.409       .  A
C1278      C1287   1.402       .  A
C1279      H1295   1.110       .  S
C1279      H1296   1.107       .  S
C1279      H1297   1.111       .  S
C1281      H1292   1.108       .  S
C1281      H1293   1.111       .  S
C1281      H1294   1.109       .  S
C1283      C1288   1.508       .  S
C1283      C1284   1.402       .  A
C1284      C1285   1.406       .  A
C1284      H1289   1.079       .  S
C1285      C1286   1.423       .  A
C1286      C1290   1.507       .  S
C1286      C1287   1.407       .  A
C1287      H1291   1.084       .  S
C1288      H1298   1.111       .  S
C1288      H1299   1.110       .  S
C1288      H1300   1.107       .  S
C1290      H1301   1.109       .  S
C1290      H1302   1.106       .  S
C1290      H1303   1.110       .  S
