geometry optimzed in LAMMPS
_audit_creation_date              2020-11-30 
_audit_creation_method            'lammps2cif' 
_symmetry_space_group_name_H-M    'P1' 
_symmetry_Int_Tables_number       1 
_symmetry_cell_setting            triclinic 
loop_ 
_symmetry_equiv_pos_as_xyz 
  x,y,z 
_cell_length_a                    25.353470965905803 
_cell_length_b                    25.350241732765845 
_cell_length_c                    25.48827200662257 
_cell_angle_alpha                 89.48223017979734 
_cell_angle_beta                  89.93262685794976 
_cell_angle_gamma                 90.44835730901218 
loop_ 
_atom_site_label 
_atom_site_type_symbol 
_atom_site_fract_x 
_atom_site_fract_y 
_atom_site_fract_z 
_atom_site_charge 
C1          C  0.73256336  0.72460149  0.99744182     0.03410
C2          C  0.74542734  0.67099613  0.00277907    -0.12740
C3          C  0.70528386  0.63274102  0.00455509     0.00910
C4          C  0.65272202  0.64826756  0.99874350    -0.11270
C5          C  0.63954179  0.70154090  0.99348341     0.03400
C6          C  0.67957226  0.73987645  0.99334036    -0.10690
H7          H  0.78626543  0.65934619  0.00686369     0.08990
H8          H  0.62164171  0.61860925  0.99911446     0.06520
H9          H  0.66966456  0.78124672  0.98953172     0.06370
C10         C  0.72854011  0.31558501  0.00308560     0.03580
C11         C  0.74299396  0.36914715  0.00808781    -0.12740
C12         C  0.70433019  0.40838101  0.00781800     0.00910
C13         C  0.65125084  0.39397926  0.00253802    -0.11270
C14         C  0.63634374  0.34117492  0.99744892     0.03400
C15         C  0.67488234  0.30197347  0.99719549    -0.10690
H16         H  0.78405278  0.38022562  0.01293804     0.08990
H17         H  0.62115165  0.42416990  0.00248195     0.06520
H18         H  0.66306767  0.26119737  0.99202139     0.06370
C19         C  0.31995454  0.31941170  0.99599597     0.03410
C20         C  0.30568370  0.37286317  0.99708534    -0.12740
C21         C  0.34481487  0.41209074  0.99728277     0.00910
C22         C  0.39798543  0.39789550  0.99517075    -0.11270
C23         C  0.41246007  0.34478648  0.99367486     0.03400
C24         C  0.37345375  0.30546877  0.99493615    -0.10690
H25         H  0.26446354  0.38376610  0.99861431     0.08990
H26         H  0.42828215  0.42834896  0.99493897     0.06520
H27         H  0.38459515  0.26429354  0.99402636     0.06370
C28         C  0.32321523  0.72922745  0.99750433     0.03410
C29         C  0.37756268  0.74195789  0.99954254    -0.12740
C30         C  0.41547335  0.70215248  0.99665250     0.00910
C31         C  0.39940072  0.64931680  0.99810710    -0.11270
C32         C  0.34604528  0.63576580  0.99823756     0.03400
C33         C  0.30807752  0.67542683  0.99607451    -0.10690
H34         H  0.39077655  0.78247030  0.00254492     0.08990
H35         H  0.42873999  0.61838736  0.99796126     0.06520
H36         H  0.26693413  0.66400438  0.99349524     0.06370
C37         C  0.73350441  0.03284165  0.70220044     0.03410
C38         C  0.67925542  0.02924277  0.71455227    -0.12740
C39         C  0.64132704  0.02921280  0.67444261     0.00910
C40         C  0.65779886  0.03568490  0.62234186    -0.11270
C41         C  0.71124816  0.03715881  0.60941084     0.03400
C42         C  0.74916104  0.03514570  0.64913907    -0.10690
H43         H  0.66665261  0.02550273  0.75505314     0.08990
H44         H  0.62874195  0.03717478  0.59116506     0.06520
H45         H  0.79058723  0.03473804  0.63869122     0.06370
C46         C  0.32282114  0.02139829  0.70687015     0.03410
C47         C  0.37715973  0.02262116  0.71919225    -0.12740
C48         C  0.41523678  0.02197490  0.67912919     0.00910
C49         C  0.39846177  0.02201932  0.62678873    -0.11270
C50         C  0.34505495  0.01910197  0.61373948     0.03400
C51         C  0.30717023  0.01962287  0.65375062    -0.10690
H52         H  0.38973049  0.02337219  0.75972808     0.08990
H53         H  0.42751995  0.02276060  0.59550762     0.06520
H54         H  0.26573216  0.01728068  0.64360690     0.06370
C55         C  0.31689529  0.03094845  0.29812911     0.03410
C56         C  0.30255440  0.02718177  0.35155162    -0.12740
C57         C  0.34149553  0.02700895  0.39063098     0.00910
C58         C  0.39467001  0.03147453  0.37613782    -0.11270
C59         C  0.40953542  0.03518113  0.32339249     0.03400
C60         C  0.37069056  0.03437153  0.28432630    -0.10690
H61         H  0.26144735  0.02282754  0.36255900     0.08990
H62         H  0.42490174  0.03145893  0.40622465     0.06520
H63         H  0.38222902  0.03698018  0.24342848     0.06370
C64         C  0.72715482  0.03411634  0.29488780     0.03410
C65         C  0.74194572  0.02949814  0.34802602    -0.12740
C66         C  0.70409072  0.03242620  0.38775314     0.00910
C67         C  0.65067438  0.03585270  0.37480164    -0.11270
C68         C  0.63473714  0.03723283  0.32233313     0.03400
C69         C  0.67291489  0.03737078  0.28243764    -0.10690
H70         H  0.78286413  0.02441533  0.35887305     0.08990
H71         H  0.62135283  0.03741581  0.40576091     0.06520
H72         H  0.66018573  0.04073293  0.24201675     0.06370
C73         C  0.02775571  0.32023394  0.70271577     0.03410
C74         C  0.02408517  0.37409830  0.71605412    -0.12740
C75         C  0.02900590  0.41350497  0.67739461     0.00910
C76         C  0.03520466  0.39885702  0.62498308    -0.11270
C77         C  0.04020923  0.34601624  0.61102027     0.03400
C78         C  0.03694836  0.30676632  0.64990179    -0.10690
H79         H  0.01859413  0.38550012  0.75650727     0.08990
H80         H  0.03706533  0.42912296  0.59466083     0.06520
H81         H  0.04278455  0.26607210  0.63894320     0.06370
C82         C  0.02202254  0.73031429  0.70610800     0.03410
C83         C  0.02168118  0.67592916  0.71852238    -0.12740
C84         C  0.02252292  0.63845096  0.67855100     0.00910
C85         C  0.01894359  0.65502181  0.62628115    -0.11270
C86         C  0.01743792  0.70854188  0.61310958     0.03400
C87         C  0.02034119  0.74625422  0.65284004    -0.10690
H88         H  0.02166654  0.66257400  0.75897779     0.08990
H89         H  0.01826987  0.62588088  0.59536094     0.06520
H90         H  0.02078610  0.78773385  0.64223921     0.06370
C91         C  0.02385492  0.31823022  0.29683334     0.03410
C92         C  0.03573055  0.30537641  0.34954263    -0.12740
C93         C  0.03516456  0.34420571  0.38828420     0.00910
C94         C  0.02574865  0.39662649  0.37418162    -0.11270
C95         C  0.01577349  0.41100335  0.32206629     0.03400
C96         C  0.01396005  0.37167274  0.28358495    -0.10690
H97         H  0.04623917  0.26557460  0.36073942     0.08990
H98         H  0.02634557  0.42666543  0.40423137     0.06520
H99         H  0.00447304  0.38281353  0.24360497     0.06370
C100        C  0.02728400  0.72862298  0.29804799     0.03410
C101        C  0.02779160  0.74391417  0.35096696    -0.12740
C102        C  0.02403484  0.70590910  0.39090774     0.00910
C103        C  0.02041260  0.65250071  0.37787425    -0.11270
C104        C  0.01773241  0.63642399  0.32542846     0.03400
C105        C  0.02233857  0.67472824  0.28540590    -0.10690
H106        H  0.02987180  0.78534207  0.36098212     0.08990
H107        H  0.01820715  0.62324152  0.40911573     0.06520
H108        H  0.02002733  0.66295240  0.24470936     0.06370
O109        O  0.87633206  0.93486473  0.00152259    -0.86210
O110        O  0.17459014  0.93717558  0.00076275    -0.86380
O111        O  0.02439395  0.87453111  0.91584194    -0.88050
O112        O  0.02745143  0.87471219  0.08844846    -0.86800
O113        O  0.02278129  0.93896107  0.15133915    -0.86390
O114        O  0.02297662  0.93901352  0.85195277    -0.87760
O115        O  0.11019143  0.87329995  0.00103673    -0.86240
O116        O  0.94084888  0.87162839  0.00025798    -0.85830
Zr117      Zr  0.02527090  0.91704037  0.00158899     2.84310
O118        O  0.07755087  0.97041857  0.05505190    -1.07800
O119        O  0.97243746  0.96968010  0.94732705    -1.08530
C120        C  0.89240649  0.88656804  0.00092448     1.06900
C121        C  0.15885833  0.88852592  0.00082695     1.06840
C122        C  0.02282812  0.89039517  0.86748059     1.09820
C123        C  0.02526875  0.89046694  0.13657682     1.07600
H124        H  0.10051114  0.94854029  0.92590832     0.33160
O125        O  0.07862940  0.97033491  0.94774347    -1.28760
H126        H  0.94876281  0.94728699  0.07610868     0.32830
O127        O  0.97094459  0.96934588  0.05407772    -1.30430
O128        O  0.17576415  0.10841090  0.00204392    -0.86210
O129        O  0.87567140  0.10781592  0.99955072    -0.87700
O130        O  0.11188834  0.02624616  0.85195999    -0.86280
O131        O  0.10900772  0.02401863  0.15037514    -0.86330
O132        O  0.93614840  0.02715512  0.14780968    -0.86040
O133        O  0.94008192  0.02548649  0.85106320    -0.85850
O134        O  0.02590159  0.17384371  0.91501830    -0.86220
O135        O  0.02507342  0.17407550  0.08385066    -0.85680
O136        O  0.02580842  0.11074869  0.85125752    -0.86750
O137        O  0.02412419  0.11049682  0.14823202    -0.85900
O138        O  0.17554062  0.02393755  0.91598811    -0.86300
O139        O  0.87545951  0.02063303  0.91419826    -0.86020
O140        O  0.87338983  0.02499801  0.08321088    -0.85680
O141        O  0.17375645  0.02016753  0.08735660    -0.86080
O142        O  0.11202761  0.17233456  0.99741603    -0.86380
O143        O  0.93988449  0.17224150  0.99896897    -0.87720
Zr144      Zr  0.13154851  0.02301083  0.00135304     2.83100
Zr145      Zr  0.91863892  0.02205795  0.99951098     2.83500
Zr146      Zr  0.02573948  0.02434647  0.89462711     2.84090
Zr147      Zr  0.02347702  0.02404397  0.10656031     2.83360
Zr148      Zr  0.02557849  0.12945712  0.99972462     2.84220
O149        O  0.97095178  0.07640897  0.05240878    -1.08290
O150        O  0.07948301  0.07697360  0.94752327    -1.07790
C151        C  0.16037971  0.15676593  0.99957309     1.06870
C152        C  0.89130477  0.15648299  0.99903828     1.09490
C153        C  0.16036362  0.02559887  0.86757630     1.07040
C154        C  0.15768919  0.02171243  0.13546898     1.07400
C155        C  0.88771610  0.02696576  0.13165599     1.06990
C156        C  0.89140417  0.02311019  0.86609034     1.06540
C157        C  0.02605854  0.15921977  0.86670446     1.06960
C158        C  0.02483409  0.15914750  0.13239542     1.06480
H159        H  0.95006110  0.09869590  0.92471941     0.33150
O160        O  0.97189661  0.07669374  0.94673437    -1.29390
H161        H  0.10036140  0.09878977  0.07542422     0.33180
O162        O  0.07838604  0.07673678  0.05365103    -1.30770
C163        C  0.02768510  0.76970976  0.25627802     0.00120
C164        C  0.98852212  0.80857776  0.25689301    -0.11750
C165        C  0.98729672  0.84847698  0.21859583     0.02360
C166        C  0.02555467  0.84963336  0.17832506     0.00040
C167        C  0.06545038  0.81161022  0.17847391    -0.11690
C168        C  0.06679625  0.77172013  0.21687686     0.02240
H169        H  0.95857341  0.80754515  0.28732696     0.15220
H170        H  0.09658506  0.81419670  0.14950558     0.15220
C171        C  0.10990577  0.73484564  0.21640982     0.36880
C172        C  0.94613031  0.88741340  0.22133423     0.36780
N173        N  0.14457364  0.70542253  0.21609633    -0.43470
N174        N  0.91333374  0.91877280  0.22399886    -0.43460
C175        C  0.00795547  0.46789315  0.30992062     0.00120
C176        C  0.96922621  0.49485989  0.33815436    -0.11750
C177        C  0.96920022  0.54994482  0.34010805     0.02360
C178        C  0.00910509  0.57942132  0.31396746     0.00040
C179        C  0.04454298  0.55272316  0.28127560    -0.11690
C180        C  0.04410246  0.49727853  0.27892172     0.02240
H181        H  0.94062872  0.47258130  0.36123993     0.15220
H182        H  0.07473959  0.57490381  0.26026359     0.15220
C183        C  0.08345388  0.47142199  0.24754354     0.36880
C184        C  0.92880074  0.57512446  0.37087087     0.36780
N185        N  0.11472218  0.45056692  0.22212445    -0.43470
N186        N  0.89662988  0.59525781  0.39576089    -0.43460
C187        C  0.02354186  0.27671364  0.25518850     0.00120
C188        C  0.04472139  0.28918333  0.20545218    -0.11750
C189        C  0.04507326  0.25233136  0.16473360     0.02360
C190        C  0.02492689  0.20070447  0.17343861     0.00040
C191        C  0.00412125  0.18807378  0.22306808    -0.11690
C192        C  0.00267038  0.22515690  0.26338845     0.02240
H193        H  0.06185589  0.32790455  0.19828979     0.15220
H194        H  0.98772439  0.14900977  0.23031053     0.15220
C195        C  0.97787078  0.20854846  0.31180700     0.36880
C196        C  0.06741383  0.26874916  0.11497021     0.36780
N197        N  0.95833971  0.19346196  0.35019521    -0.43470
N198        N  0.08502255  0.28218670  0.07507010    -0.43460
C199        C  0.01894155  0.72065988  0.44669061     0.00120
C200        C  0.97235849  0.70596163  0.47285903    -0.11750
C201        C  0.96937574  0.70700952  0.52749679     0.02360
C202        C  0.01363060  0.72303173  0.55695582     0.00040
C203        C  0.05850386  0.74267412  0.53072660    -0.11690
C204        C  0.06142075  0.74170463  0.47569372     0.02240
H205        H  0.93928131  0.69059568  0.45059428     0.15220
H206        H  0.09266124  0.75491188  0.55325897     0.15220
C207        C  0.10967988  0.75842516  0.45024403     0.36880
C208        C  0.92171461  0.68808838  0.55270101     0.36780
N209        N  0.14833149  0.77200440  0.42985013    -0.43470
N210        N  0.88357502  0.67280743  0.57288230    -0.43460
C211        C  0.02282108  0.77066132  0.74836597     0.00120
C212        C  0.98953378  0.81454477  0.74364628    -0.11750
C213        C  0.98913741  0.85407195  0.78157831     0.02360
C214        C  0.02149820  0.84951953  0.82644064     0.00040
C215        C  0.05431858  0.80551134  0.83171274    -0.11690
C216        C  0.05607241  0.76680026  0.79288672     0.02240
H217        H  0.96333349  0.81794279  0.71020421     0.15220
H218        H  0.08006582  0.80224835  0.86554709     0.15220
C219        C  0.09434776  0.72527567  0.79879007     0.36880
C220        C  0.95422452  0.89820031  0.77377093     0.36780
N221        N  0.12499490  0.69200680  0.80375523    -0.43470
N222        N  0.92635453  0.93351895  0.76690579    -0.43460
C223        C  0.04330889  0.33148682  0.44444301     0.00120
C224        C  0.08619458  0.35501664  0.47019191    -0.11750
C225        C  0.08827308  0.35632118  0.52497827     0.02360
C226        C  0.04712935  0.33318972  0.55491568     0.00040
C227        C  0.00676474  0.30550575  0.52927667    -0.11690
C228        C  0.00412133  0.30511476  0.47436085     0.02240
H229        H  0.11627283  0.37552402  0.44738174     0.15220
H230        H  0.97475098  0.28826788  0.55210914     0.15220
C231        C  0.95759573  0.28307951  0.45017865     0.36880
C232        C  0.13124930  0.38446228  0.54959757     0.36780
N233        N  0.91963871  0.26596923  0.43152953    -0.43470
N234        N  0.16540151  0.40732516  0.56941728    -0.43460
C235        C  0.02984406  0.58163734  0.68965543     0.00120
C236        C  0.99051071  0.55272579  0.71633714    -0.11750
C237        C  0.99110437  0.49726710  0.71673175     0.02360
C238        C  0.03168681  0.47051558  0.69005009     0.00040
C239        C  0.07364094  0.49987397  0.66833614    -0.11690
C240        C  0.07289582  0.55478117  0.66758262     0.02240
H241        H  0.95765753  0.57332027  0.73386565     0.15220
H242        H  0.10580462  0.47965794  0.64911402     0.15220
C243        C  0.11544871  0.58266666  0.64131583     0.36880
C244        C  0.94806226  0.46909712  0.74163719     0.36780
N245        N  0.14924677  0.60501735  0.61988943    -0.43470
N246        N  0.91373034  0.44659617  0.76204601    -0.43460
C247        C  0.02598678  0.20123676  0.82572027     0.00120
C248        C  0.00029901  0.19150573  0.77792841    -0.11750
C249        C  0.99862562  0.22996702  0.73814631     0.02360
C250        C  0.02556603  0.27865542  0.74456525     0.00040
C251        C  0.05111451  0.28824347  0.79248115    -0.11690
C252        C  0.05018494  0.25109022  0.83330175     0.02240
H253        H  0.97991614  0.15421412  0.77219732     0.15220
H254        H  0.07210050  0.32514248  0.79835354     0.15220
C255        C  0.07360913  0.26623696  0.88258765     0.36880
C256        C  0.96667172  0.21914828  0.69256223     0.36780
N257        N  0.09112183  0.27957793  0.92225884    -0.43470
N258        N  0.94100264  0.21037157  0.65610294    -0.43460
C259        C  0.84536872  0.02975731  0.17193210     0.00120
C260        C  0.85548001  0.05735501  0.21838977    -0.11750
C261        C  0.81702376  0.06157162  0.25758137     0.02360
C262        C  0.76807708  0.03460352  0.25253860     0.00040
C263        C  0.75778015  0.00769282  0.20562484    -0.11690
C264        C  0.79481550  0.00668847  0.16488766     0.02240
H265        H  0.89306449  0.07744987  0.22336758     0.15220
H266        H  0.72049010  0.98718433  0.20048646     0.15220
C267        C  0.77905072  0.98216768  0.11637087     0.36880
C268        C  0.82805852  0.09651029  0.30074335     0.36780
N269        N  0.76570096  0.96326448  0.07735803    -0.43470
N270        N  0.83698035  0.12466219  0.33516966    -0.43460
C271        C  0.57764770  0.03888268  0.31053385     0.00120
C272        C  0.55015339  0.08554286  0.32039779    -0.11750
C273        C  0.49492375  0.08600602  0.32047730     0.02360
C274        C  0.46638896  0.03916247  0.31066993     0.00040
C275        C  0.49383106  0.99322820  0.29764554    -0.11690
C276        C  0.54918875  0.99274036  0.29760836     0.02240
H277        H  0.57190306  0.12100321  0.33060964     0.15220
H278        H  0.47203874  0.95695769  0.29078034     0.15220
C279        C  0.57589407  0.94361261  0.28823408     0.36880
C280        C  0.46819692  0.13430922  0.33322723     0.36780
N281        N  0.59734100  0.90422746  0.28087435    -0.43470
N282        N  0.44665188  0.17298444  0.34336276    -0.43460
C283        C  0.27585941  0.02915690  0.25653889     0.00120
C284        C  0.27976999  0.99128870  0.21680072    -0.11750
C285        C  0.24169117  0.98787503  0.17708522     0.02360
C286        C  0.19833203  0.02249571  0.17703755     0.00040
C287        C  0.19425146  0.06007853  0.21685879    -0.11690
C288        C  0.23288142  0.06428547  0.25582243     0.02240
H289        H  0.31245309  0.96393208  0.21710659     0.15220
H290        H  0.16165171  0.08756491  0.21642801     0.15220
C291        C  0.22905551  0.10715106  0.29242936     0.36880
C292        C  0.24700972  0.94731395  0.13804222     0.36780
N293        N  0.22569969  0.14216658  0.32099213    -0.43470
N294        N  0.25132188  0.91469443  0.10688814    -0.43460
C295        C  0.32871828  0.01929160  0.44699035     0.00120
C296        C  0.35058271  0.97554141  0.47277526    -0.11750
C297        C  0.35174497  0.97249030  0.52748996     0.02360
C298        C  0.33083726  0.01390954  0.55759159     0.00040
C299        C  0.30428229  0.05512179  0.53200106    -0.11690
C300        C  0.30308918  0.05812198  0.47691683     0.02240
H301        H  0.36968696  0.94516920  0.45000629     0.15220
H302        H  0.28800014  0.08696430  0.55491662     0.15220
C303        C  0.27934620  0.10358156  0.45244579     0.36880
C304        C  0.37742984  0.92793367  0.55193996     0.36780
N305        N  0.26009355  0.14032595  0.43352582    -0.43470
N306        N  0.39820152  0.89242269  0.57161871    -0.43460
C307        C  0.20196881  0.02580323  0.82670165     0.00120
C308        C  0.24484426  0.99151398  0.83238433    -0.11750
C309        C  0.28419223  0.98879331  0.79383368     0.02360
C310        C  0.28200665  0.02216739  0.74905914     0.00040
C311        C  0.23925415  0.05680366  0.74377861    -0.11690
C312        C  0.19928112  0.05857599  0.78168443     0.02240
H313        H  0.24674868  0.96549672  0.86635872     0.15220
H314        H  0.23718962  0.08292644  0.70991573     0.15220
C315        C  0.15681347  0.09549278  0.77398596     0.36880
C316        C  0.32461621  0.94942388  0.80004309     0.36780
N317        N  0.12286189  0.12508605  0.76751299    -0.43470
N318        N  0.35700412  0.91785910  0.80500645    -0.43460
C319        C  0.72553235  0.03680625  0.55338384     0.00120
C320        C  0.72205788  0.08409652  0.52476453    -0.11750
C321        C  0.71930241  0.08352414  0.46997004     0.02360
C322        C  0.71961126  0.03501350  0.44337010     0.00040
C323        C  0.72736745  0.98807292  0.47165964    -0.11690
C324        C  0.73040406  0.98867584  0.52652441     0.02240
H325        H  0.71793129  0.12108153  0.54539012     0.15220
H326        H  0.72770563  0.95076726  0.45116574     0.15220
C327        C  0.73426550  0.93923333  0.55477255     0.36880
C328        C  0.71300196  0.13277669  0.44184017     0.36780
N329        N  0.73736351  0.89972709  0.57762277    -0.43470
N330        N  0.70802633  0.17209843  0.41903391    -0.43460
C331        C  0.47288998  0.01754422  0.68945773     0.00120
C332        C  0.50083214  0.98005880  0.66047372    -0.11750
C333        C  0.55569770  0.98137657  0.65765424     0.02360
C334        C  0.58432832  0.02030075  0.68520806     0.00040
C335        C  0.55699146  0.05413468  0.71894071    -0.11690
C336        C  0.50151272  0.05308137  0.72128497     0.02240
H337        H  0.47939970  0.95122350  0.63740641     0.15220
H338        H  0.57874293  0.08351518  0.74096822     0.15220
C339        C  0.47523583  0.09070337  0.75420425     0.36880
C340        C  0.58137000  0.94370165  0.62409117     0.36780
N341        N  0.45430075  0.12053107  0.78113262    -0.43470
N342        N  0.60171868  0.91397289  0.59661427    -0.43460
C343        C  0.85067522  0.02475475  0.82471640     0.00120
C344        C  0.85486516  0.06344329  0.78522632    -0.11750
C345        C  0.81664915  0.06762752  0.74584231     0.02360
C346        C  0.77389607  0.03143623  0.74451130     0.00040
C347        C  0.76989429  0.99263024  0.78408543    -0.11690
C348        C  0.80747633  0.98931071  0.82419571     0.02240
H349        H  0.88745120  0.09143969  0.78596466     0.15220
H350        H  0.73761794  0.96431685  0.78331744     0.15220
C351        C  0.80163274  0.94812180  0.86328615     0.36880
C352        C  0.82107460  0.11092803  0.70884363     0.36780
N353        N  0.79657447  0.91510359  0.89455464    -0.43470
N354        N  0.82459287  0.14570180  0.67928475    -0.43460
C355        C  0.28190193  0.77118487  0.99784912     0.00120
C356        C  0.23427831  0.76102593  0.02464986    -0.11750
C357        C  0.19290900  0.79712491  0.02394428     0.02360
C358        C  0.20006109  0.84719404  0.99997709     0.00040
C359        C  0.24774073  0.85793509  0.97374012    -0.11690
C360        C  0.28759842  0.82007558  0.97080320     0.02240
H361        H  0.22866031  0.72415575  0.04584994     0.15220
H362        H  0.25306464  0.89539182  0.95340677     0.15220
C363        C  0.33195449  0.83169554  0.93693401     0.36880
C364        C  0.14320835  0.78024246  0.04638546     0.36780
N365        N  0.36742328  0.84119269  0.90973159    -0.43470
N366        N  0.10316098  0.76525735  0.06271676    -0.43460
C367        C  0.33157020  0.46845945  0.00061684     0.00120
C368        C  0.31938617  0.49627580  0.95444087    -0.11750
C369        C  0.31938808  0.55157525  0.95378089     0.02360
C370        C  0.33155437  0.57933749  0.99993058     0.00040
C371        C  0.33976873  0.55139245  0.04689645    -0.11690
C372        C  0.33980840  0.49625186  0.04756701     0.02240
H373        H  0.31338962  0.47488960  0.91824000     0.15220
H374        H  0.34933055  0.57273843  0.08238354     0.15220
C375        C  0.35143919  0.46893807  0.09611327     0.36880
C376        C  0.31112860  0.57901369  0.90464622     0.36780
N377        N  0.36071657  0.44694450  0.13496122    -0.43470
N378        N  0.30458117  0.60117574  0.86533031    -0.43460
C379        C  0.27895931  0.27785897  0.99627745     0.00120
C380        C  0.27568350  0.24321472  0.03939214    -0.11750
C381        C  0.23715462  0.20343470  0.04124263     0.02360
C382        C  0.20159219  0.19778864  0.99916629     0.00040
C383        C  0.20552683  0.23175532  0.95566796    -0.11690
C384        C  0.24361159  0.27192581  0.95403825     0.02240
H385        H  0.30285146  0.24776474  0.07191767     0.15220
H386        H  0.17944724  0.22616544  0.92251081     0.15220
C387        C  0.24672491  0.30553736  0.90807799     0.36880
C388        C  0.23387911  0.16993570  0.08724830     0.36780
N389        N  0.24927137  0.33250667  0.87127313    -0.43470
N390        N  0.23126913  0.14326209  0.12424148    -0.43460
C391        C  0.57966207  0.32850844  0.99359905     0.00120
C392        C  0.55344775  0.34068012  0.94668823    -0.11750
C393        C  0.49835693  0.34231869  0.94502915     0.02360
C394        C  0.46889310  0.33157511  0.99087310     0.00040
C395        C  0.49492213  0.31574670  0.03681220    -0.11690
C396        C  0.55011857  0.31441964  0.03856768     0.02240
H397        H  0.57614507  0.35196045  0.91221188     0.15220
H398        H  0.47226562  0.30792054  0.07220029     0.15220
C399        C  0.57562675  0.30308666  0.08796133     0.36880
C400        C  0.47282925  0.35770125  0.89670024     0.36780
N401        N  0.59605214  0.29429546  0.12762829    -0.43470
N402        N  0.45218790  0.36999530  0.85806081    -0.43460
C403        C  0.85003869  0.19739744  0.99914838     0.00120
C404        C  0.80564241  0.18988663  0.03136565    -0.11750
C405        C  0.76603200  0.22793641  0.03388785     0.02360
C406        C  0.76981067  0.27424679  0.00268153     0.00040
C407        C  0.81414264  0.28153487  0.97021603    -0.11690
C408        C  0.85416261  0.24387718  0.96836023     0.02240
H409        H  0.80252165  0.15467249  0.05573107     0.15220
H410        H  0.81724423  0.31660415  0.94566216     0.15220
C411        C  0.89795057  0.25321513  0.93309696     0.36880
C412        C  0.72332782  0.21931765  0.07058557     0.36780
N413        N  0.93288797  0.26100740  0.90474709    -0.43470
N414        N  0.68922474  0.21210383  0.10006352    -0.43460
C415        C  0.58323601  0.71531661  0.98862456     0.00120
C416        C  0.55501989  0.69433020  0.94634478    -0.11750
C417        C  0.50000559  0.69381028  0.94644151     0.02360
C418        C  0.47225918  0.71418202  0.98975945     0.00040
C419        C  0.50030878  0.73975235  0.02972082    -0.11690
C420        C  0.55569430  0.74051101  0.02940142     0.02240
H421        H  0.57611612  0.67551806  0.91461604     0.15220
H422        H  0.47913315  0.75588786  0.06282272     0.15220
C423        C  0.58331590  0.76353516  0.07317474     0.36880
C424        C  0.47280578  0.66974561  0.90285468     0.36780
N425        N  0.60561439  0.78212616  0.10811056    -0.43470
N426        N  0.45085443  0.65032564  0.86814853    -0.43460
C427        C  0.71748644  0.46501595  0.01351768     0.00120
C428        C  0.69315798  0.49257532  0.05428454    -0.11750
C429        C  0.69258108  0.54761115  0.05425260     0.02360
C430        C  0.71668777  0.57610577  0.01275175     0.00040
C431        C  0.74545990  0.54877697  0.97469363    -0.11690
C432        C  0.74599517  0.49339656  0.97475073     0.02240
H433        H  0.67183573  0.47090308  0.08459162     0.15220
H434        H  0.76430228  0.57053449  0.94289121     0.15220
C435        C  0.77221192  0.46674561  0.93236922     0.36880
C436        C  0.66473683  0.57398675  0.09584993     0.36780
N437        N  0.79333173  0.44531834  0.89849073    -0.43470
N438        N  0.64227054  0.59519876  0.12899707    -0.43460
C439        C  0.77445556  0.76509453  0.99790475     0.00120
C440        C  0.78249497  0.79407446  0.04378924    -0.11750
C441        C  0.82171515  0.83308401  0.04586107     0.02360
C442        C  0.85215362  0.84464829  0.00090023     0.00040
C443        C  0.84507999  0.81472002  0.95541559    -0.11690
C444        C  0.80654248  0.77493637  0.95365368     0.02240
H445        H  0.75872774  0.78545215  0.07828253     0.15220
H446        H  0.86935880  0.82281995  0.92115245     0.15220
C447        C  0.80014206  0.74514071  0.90605074     0.36880
C448        C  0.83240920  0.85813174  0.09533545     0.36780
N449        N  0.79507343  0.72113723  0.86795869    -0.43470
N450        N  0.84138038  0.87735134  0.13536153    -0.43460
loop_ 
_geom_bond_atom_site_label_1 
_geom_bond_atom_site_label_2 
_geom_bond_distance 
_geom_bond_site_symmetry_2 
_ccdc_geom_bond_type 
C1            C2   1.405   1_556  A
C1            C6   1.405       .  A
C1          C439   1.471       .  S
C2            C3   1.401       .  A
C2            H7   1.084       .  S
C3            C4   1.400   1_554  A
C3          C430   1.480       .  S
C4            C5   1.399       .  A
C4            H8   1.085       .  S
C5            C6   1.400       .  A
C5          C415   1.477       .  S
C6            H9   1.084       .  S
C10          C11   1.411       .  A
C10          C15   1.409   1_554  A
C10         C406   1.487       .  S
C11          C12   1.402       .  A
C11          H16   1.084       .  S
C12          C13   1.399       .  A
C12         C427   1.480       .  S
C13          C14   1.395   1_554  A
C13          H17   1.085       .  S
C14          C15   1.399       .  A
C14         C391   1.474       .  S
C15          H18   1.083       .  S
C19          C20   1.406       .  A
C19          C24   1.405       .  A
C19         C379   1.474       .  S
C20          C21   1.399       .  A
C20          H25   1.084       .  S
C21          C22   1.399       .  A
C21         C367   1.474   1_556  S
C22          C23   1.399       .  A
C22          H26   1.085       .  S
C23          C24   1.399       .  A
C23         C394   1.474       .  S
C24          H27   1.084       .  S
C28          C29   1.414       .  A
C28          C33   1.415       .  A
C28         C355   1.499       .  S
C29          C30   1.401       .  A
C29          H34   1.081   1_556  S
C30          C31   1.397       .  A
C30         C418   1.479       .  S
C31          C32   1.393       .  A
C31          H35   1.085       .  S
C32          C33   1.398       .  A
C32         C370   1.474       .  S
C33          H36   1.083       .  S
C37          C38   1.413       .  A
C37          C42   1.410       .  A
C37         C346   1.488       .  S
C38          C39   1.404       .  A
C38          H43   1.083       .  S
C39          C40   1.399       .  A
C39         C334   1.486       .  S
C40          C41   1.394       .  A
C40          H44   1.085       .  S
C41          C42   1.398       .  A
C41         C319   1.473       .  S
C42          H45   1.083       .  S
C46          C47   1.414       .  A
C46          C51   1.412       .  A
C46         C310   1.492       .  S
C47          C48   1.405       .  A
C47          H52   1.082       .  S
C48          C49   1.401       .  A
C48         C331   1.490       .  S
C49          C50   1.396       .  A
C49          H53   1.085       .  S
C50          C51   1.400       .  A
C50         C298   1.483       .  S
C51          H54   1.084       .  S
C55          C56   1.411       .  A
C55          C60   1.410       .  A
C55         C283   1.487       .  S
C56          C57   1.403       .  A
C56          H61   1.084       .  S
C57          C58   1.401       .  A
C57         C295   1.483       .  S
C58          C59   1.398       .  A
C58          H62   1.085       .  S
C59          C60   1.401       .  A
C59         C274   1.480       .  S
C60          H63   1.084       .  S
C64          C65   1.410       .  A
C64          C69   1.415       .  A
C64         C262   1.496       .  S
C65          C66   1.397       .  A
C65          H70   1.082       .  S
C66          C67   1.397       .  A
C66         C322   1.474       .  S
C67          C68   1.398       .  A
C67          H71   1.085       .  S
C68          C69   1.403       .  A
C68         C271   1.480       .  S
C69          H72   1.083       .  S
C73          C74   1.414       .  A
C73          C78   1.411       .  A
C73         C250   1.493       .  S
C74          C75   1.402       .  A
C74          H79   1.082       .  S
C75          C76   1.399       .  A
C75         C238   1.485       .  S
C76          C77   1.396       .  A
C76          H80   1.085       .  S
C77          C78   1.400       .  A
C77         C226   1.480       .  S
C78          H81   1.082       .  S
C82          C83   1.412       .  A
C82          C87   1.414       .  A
C82         C211   1.492       .  S
C83          C84   1.400       .  A
C83          H88   1.082       .  S
C84          C85   1.397       .  A
C84         C235   1.478       .  S
C85          C86   1.396       .  A
C85          H89   1.085       .  S
C86          C87   1.401       .  A
C86         C202   1.478       .  S
C87          H90   1.083       .  S
C91          C92   1.413       .  A
C91          C96   1.418       .  A
C91         C187   1.501       .  S
C92          C93   1.401       .  A
C92          H97   1.082       .  S
C93          C94   1.396       .  A
C93         C223   1.479       .  S
C94          C95   1.398       .  A
C94          H98   1.085       .  S
C95          C96   1.405       .  A
C95         C175   1.487       .  S
C96          H99   1.083       .  S
C100        C101   1.407       .  A
C100        C105   1.411       .  A
C100        C163   1.483       .  S
C101        C102   1.398       .  A
C101        H106   1.084       .  S
C102        C103   1.399       .  A
C102        C199   1.479       .  S
C103        C104   1.403       .  A
C103        H107   1.084       .  S
C104        C105   1.406       .  A
C104        C178   1.491       .  S
C105        H108   1.084       .  S
O109       Zr145   2.449   1_564  S
O109        C120   1.294       .  A
O110       Zr144   2.442   1_565  S
O110        C121   1.293       .  A
O111       Zr117   2.446   1_556  S
O111        C122   1.294       .  A
O112       Zr117   2.452       .  S
O112        C123   1.295       .  A
O113       Zr147   2.431   1_565  S
O113        C123   1.291       .  A
O114       Zr146   2.431   1_565  S
O114        C122   1.291       .  A
O115       Zr117   2.430       .  S
O115        C121   1.290       .  A
O116       Zr117   2.423   1_655  S
O116        C120   1.288       .  A
Zr117       O118   2.335       .  S
Zr117       O119   2.342   1_454  S
Zr117       O127   2.346   1_455  S
Zr117       O125   2.339   1_554  S
O118       Zr144   2.336   1_565  S
O118       Zr147   2.347   1_565  S
O119       Zr145   2.334   1_565  S
O119       Zr146   2.342   1_665  S
C120        C442   1.468       .  S
C121        C358   1.486   1_554  S
C122        C214   1.479       .  S
C123        C166   1.478       .  S
H124        O125   0.966       .  S
O125       Zr144   2.337   1_566  S
O125       Zr146   2.346   1_565  S
H126        O127   0.966       .  S
O127       Zr145   2.340   1_564  S
O127       Zr147   2.344   1_665  S
O128       Zr144   2.430       .  S
O128        C151   1.290   1_554  A
O129       Zr145   2.439       .  S
O129        C152   1.293       .  A
O130       Zr146   2.439       .  S
O130        C153   1.292       .  A
O131       Zr147   2.440       .  S
O131        C154   1.293       .  A
O132       Zr147   2.452   1_655  S
O132        C155   1.296       .  A
O133       Zr146   2.441   1_655  S
O133        C156   1.293       .  A
O134       Zr148   2.426       .  S
O134        C157   1.289       .  A
O135       Zr148   2.433   1_554  S
O135        C158   1.291       .  A
O136       Zr146   2.445       .  S
O136        C157   1.294       .  A
O137       Zr147   2.444       .  S
O137        C158   1.294       .  A
O138       Zr144   2.444   1_556  S
O138        C153   1.293       .  A
O139       Zr145   2.436       .  S
O139        C156   1.291       .  A
O140       Zr145   2.423   1_554  S
O140        C155   1.289       .  A
O141       Zr144   2.441       .  S
O141        C154   1.293       .  A
O142       Zr148   2.439       .  S
O142        C151   1.292       .  A
O143       Zr148   2.436   1_655  S
O143        C152   1.292       .  A
Zr144       O150   2.344   1_554  S
Zr144       O162   2.346       .  S
Zr145       O149   2.342   1_556  S
Zr145       O160   2.342       .  S
Zr146       O150   2.337       .  S
Zr146       O160   2.333   1_455  S
Zr147       O149   2.332   1_455  S
Zr147       O162   2.340       .  S
Zr148       O149   2.337   1_456  S
Zr148       O150   2.338       .  S
Zr148       O162   2.338   1_556  S
Zr148       O160   2.340   1_455  S
C151        C382   1.468       .  S
C152        C403   1.479       .  S
C153        C307   1.482       .  S
C154        C286   1.479       .  S
C155        C259   1.487       .  S
C156        C343   1.477       .  S
C157        C247   1.485       .  S
C158        C190   1.491       .  S
H159        O160   0.966       .  S
H161        O162   0.966       .  S
C163        C164   1.404   1_455  A
C163        C168   1.411       .  A
C164        C165   1.400       .  A
C164        H169   1.085       .  S
C165        C166   1.411   1_655  A
C165        C172   1.444       .  S
C166        C167   1.403       .  A
C167        C168   1.402       .  A
C167        H170   1.081       .  S
C168        C171   1.444       .  S
C171        N173   1.157       .  T
C172        N174   1.157       .  T
C175        C176   1.403   1_455  A
C175        C180   1.413       .  A
C176        C177   1.398       .  A
C176        H181   1.085       .  S
C177        C178   1.415   1_655  A
C177        C184   1.445       .  S
C178        C179   1.406       .  A
C179        C180   1.407       .  A
C179        H182   1.084       .  S
C180        C183   1.443       .  S
C183        N185   1.157       .  T
C184        N186   1.157       .  T
C187        C188   1.408       .  A
C187        C192   1.420       .  A
C188        C189   1.403       .  A
C188        H193   1.084       .  S
C189        C190   1.417       .  A
C189        C196   1.445       .  S
C190        C191   1.403       .  A
C191        C192   1.400       .  A
C191        H194   1.085   1_455  S
C192        C195   1.442   1_455  S
C195        N197   1.157       .  T
C196        N198   1.158       .  T
C199        C200   1.402   1_455  A
C199        C204   1.411       .  A
C200        C201   1.395       .  A
C200        H205   1.085       .  S
C201        C202   1.410   1_655  A
C201        C208   1.444       .  S
C202        C203   1.404       .  A
C203        C204   1.405       .  A
C203        H206   1.085       .  S
C204        C207   1.443       .  S
C207        N209   1.157       .  T
C208        N210   1.157       .  T
C211        C212   1.406   1_455  A
C211        C216   1.418       .  A
C212        C213   1.399       .  A
C212        H217   1.084       .  S
C213        C214   1.413   1_655  A
C213        C220   1.444       .  S
C214        C215   1.403       .  A
C215        C216   1.401       .  A
C215        H218   1.085       .  S
C216        C219   1.444       .  S
C219        N221   1.157       .  T
C220        N222   1.157       .  T
C223        C224   1.403       .  A
C223        C228   1.412       .  A
C224        C225   1.398       .  A
C224        H229   1.085       .  S
C225        C226   1.412       .  A
C225        C232   1.445       .  S
C226        C227   1.402       .  A
C227        C228   1.402       .  A
C227        H230   1.085   1_455  S
C228        C231   1.443   1_455  S
C231        N233   1.157       .  T
C232        N234   1.157       .  T
C235        C236   1.404   1_455  A
C235        C240   1.410       .  A
C236        C237   1.406       .  A
C236        H241   1.084       .  S
C237        C238   1.414   1_655  A
C237        C244   1.443       .  S
C238        C239   1.404       .  A
C239        C240   1.392       .  A
C239        H242   1.085       .  S
C240        C243   1.446       .  S
C243        N245   1.157       .  T
C244        N246   1.157       .  T
C247        C248   1.405       .  A
C247        C252   1.415       .  A
C248        C249   1.401   1_455  A
C248        H253   1.085   1_455  S
C249        C250   1.417   1_655  A
C249        C256   1.444       .  S
C250        C251   1.405       .  A
C251        C252   1.397       .  A
C251        H254   1.084       .  S
C252        C255   1.444       .  S
C255        N257   1.157       .  T
C256        N258   1.157       .  T
C259        C260   1.404       .  A
C259        C264   1.417       .  A
C260        C261   1.400       .  A
C260        H265   1.085       .  S
C261        C262   1.419       .  A
C261        C268   1.445       .  S
C262        C263   1.406       .  A
C263        C264   1.400       .  A
C263        H266   1.084   1_545  S
C264        C267   1.444   1_545  S
C267        N269   1.158       .  T
C268        N270   1.157       .  T
C271        C272   1.402       .  A
C271        C276   1.411   1_545  A
C272        C273   1.400       .  A
C272        H277   1.085       .  S
C273        C274   1.410       .  A
C273        C280   1.444       .  S
C274        C275   1.403   1_545  A
C275        C276   1.404       .  A
C275        H278   1.085       .  S
C276        C279   1.444       .  S
C279        N281   1.157       .  T
C280        N282   1.157       .  T
C283        C284   1.406   1_545  A
C283        C288   1.413       .  A
C284        C285   1.402       .  A
C284        H289   1.085       .  S
C285        C286   1.412   1_565  A
C285        C292   1.444       .  S
C286        C287   1.403       .  A
C287        C288   1.400       .  A
C287        H290   1.085       .  S
C288        C291   1.442       .  S
C291        N293   1.157       .  T
C292        N294   1.157       .  T
C295        C296   1.402   1_545  A
C295        C300   1.413       .  A
C296        C297   1.396       .  A
C296        H301   1.085       .  S
C297        C298   1.412   1_565  A
C297        C304   1.445       .  S
C298        C299   1.404       .  A
C299        C300   1.406       .  A
C299        H302   1.085       .  S
C300        C303   1.442       .  S
C303        N305   1.157       .  T
C304        N306   1.157       .  T
C307        C308   1.404   1_545  A
C307        C312   1.413       .  A
C308        C309   1.402       .  A
C308        H313   1.085       .  S
C309        C310   1.416   1_565  A
C309        C316   1.444       .  S
C310        C311   1.406       .  A
C311        C312   1.401       .  A
C311        H314   1.085       .  S
C312        C315   1.444       .  S
C315        N317   1.157       .  T
C316        N318   1.157       .  T
C319        C320   1.401       .  A
C319        C324   1.411   1_545  A
C320        C321   1.399       .  A
C320        H325   1.085       .  S
C321        C322   1.410       .  A
C321        C328   1.444       .  S
C322        C323   1.401   1_545  A
C323        C324   1.401       .  A
C323        H326   1.085       .  S
C324        C327   1.444       .  S
C327        N329   1.157       .  T
C328        N330   1.157       .  T
C331        C332   1.405   1_545  A
C331        C336   1.414       .  A
C332        C333   1.393       .  A
C332        H337   1.085       .  S
C333        C334   1.413   1_565  A
C333        C340   1.446       .  S
C334        C335   1.406       .  A
C335        C336   1.408       .  A
C335        H338   1.084       .  S
C336        C339   1.442       .  S
C339        N341   1.157       .  T
C340        N342   1.157       .  T
C343        C344   1.402       .  A
C343        C348   1.411   1_545  A
C344        C345   1.400       .  A
C344        H349   1.085       .  S
C345        C346   1.415       .  A
C345        C352   1.444       .  S
C346        C347   1.406   1_545  A
C347        C348   1.401       .  A
C347        H350   1.085       .  S
C348        C351   1.443       .  S
C351        N353   1.157       .  T
C352        N354   1.157       .  T
C355        C356   1.407   1_556  A
C355        C360   1.419       .  A
C356        C357   1.397       .  A
C356        H361   1.084       .  S
C357        C358   1.414   1_554  A
C357        C364   1.443       .  S
C358        C359   1.404       .  A
C359        C360   1.401       .  A
C359        H362   1.085       .  S
C360        C363   1.444       .  S
C363        N365   1.157       .  T
C364        N366   1.157       .  T
C367        C368   1.403   1_554  A
C367        C372   1.409       .  A
C368        C369   1.402       .  A
C368        H373   1.085       .  S
C369        C370   1.409       .  A
C369        C376   1.443       .  S
C370        C371   1.402   1_556  A
C371        C372   1.398       .  A
C371        H374   1.085       .  S
C372        C375   1.444       .  S
C375        N377   1.157       .  T
C376        N378   1.157       .  T
C379        C380   1.403   1_556  A
C379        C384   1.410       .  A
C380        C381   1.399       .  A
C380        H385   1.085       .  S
C381        C382   1.409   1_554  A
C381        C388   1.444       .  S
C382        C383   1.401       .  A
C383        C384   1.398       .  A
C383        H386   1.083       .  S
C384        C387   1.444       .  S
C387        N389   1.157       .  T
C388        N390   1.157       .  T
C391        C392   1.402       .  A
C391        C396   1.410   1_556  A
C392        C393   1.398       .  A
C392        H397   1.085       .  S
C393        C394   1.409       .  A
C393        C400   1.444       .  S
C394        C395   1.402   1_556  A
C395        C396   1.401       .  A
C395        H398   1.085       .  S
C396        C399   1.444       .  S
C399        N401   1.157       .  T
C400        N402   1.157       .  T
C403        C404   1.403   1_556  A
C403        C408   1.413       .  A
C404        C405   1.400       .  A
C404        H409   1.085       .  S
C405        C406   1.415       .  A
C405        C412   1.444       .  S
C406        C407   1.405   1_554  A
C407        C408   1.400       .  A
C407        H410   1.085       .  S
C408        C411   1.444       .  S
C411        N413   1.157       .  T
C412        N414   1.157       .  T
C415        C416   1.401       .  A
C415        C420   1.412   1_556  A
C416        C417   1.395       .  A
C416        H421   1.085       .  S
C417        C418   1.412       .  A
C417        C424   1.445       .  S
C418        C419   1.403   1_556  A
C419        C420   1.404       .  A
C419        H422   1.084       .  S
C420        C423   1.443       .  S
C423        N425   1.157       .  T
C424        N426   1.157       .  T
C427        C428   1.402       .  A
C427        C432   1.412   1_554  A
C428        C429   1.395       .  A
C428        H433   1.085       .  S
C429        C430   1.411       .  A
C429        C436   1.445       .  S
C430        C431   1.404   1_554  A
C431        C432   1.404       .  A
C431        H434   1.085       .  S
C432        C435   1.443       .  S
C435        N437   1.157       .  T
C436        N438   1.157       .  T
C439        C440   1.401   1_556  A
C439        C444   1.409       .  A
C440        C441   1.398       .  A
C440        H445   1.085       .  S
C441        C442   1.408       .  A
C441        C448   1.442       .  S
C442        C443   1.402   1_554  A
C443        C444   1.400       .  A
C443        H446   1.085       .  S
C444        C447   1.444       .  S
C447        N449   1.157       .  T
C448        N450   1.157       .  T
