geometry optimzed in LAMMPS
_audit_creation_date              2020-12-01 
_audit_creation_method            'lammps2cif' 
_symmetry_space_group_name_H-M    'P1' 
_symmetry_Int_Tables_number       1 
_symmetry_cell_setting            triclinic 
loop_ 
_symmetry_equiv_pos_as_xyz 
  x,y,z 
_cell_length_a                    26.66880674 
_cell_length_b                    27.340359304770523 
_cell_length_c                    27.609537430282888 
_cell_angle_alpha                 90.38130193415336 
_cell_angle_beta                  90.26758818041192 
_cell_angle_gamma                 89.38591737521887 
loop_ 
_atom_site_label 
_atom_site_type_symbol 
_atom_site_fract_x 
_atom_site_fract_y 
_atom_site_fract_z 
_atom_site_charge 
N1          N  0.44935570  0.09378349  0.05928531    -0.07700
N2          N  0.41972357  0.13055732  0.07210374    -0.59800
N3          N  0.06178937  0.05465670  0.09116864    -0.07400
N4          N  0.09378171  0.06461991  0.12624555    -0.61900
N5          N  0.06350052  0.08854795  0.05771082    -0.07000
N6          N  0.09686580  0.12202550  0.06945586    -0.59800
N7          N  0.44736523  0.05884358  0.09176387    -0.06600
N8          N  0.41581954  0.07087914  0.12677906    -0.62300
C9          C  0.39932105  0.11611820  0.11455479     0.94500
C10         C  0.11533856  0.10696336  0.11269006     0.94300
N11         N  0.05845646  0.40454327  0.05739057    -0.07900
N12         N  0.08966994  0.36882195  0.06983237    -0.60400
N13         N  0.44428629  0.44259755  0.09012544    -0.06000
N14         N  0.41194293  0.43245394  0.12454692    -0.61600
N15         N  0.44446583  0.40777828  0.05703949    -0.07900
N16         N  0.41260570  0.37324009  0.06862292    -0.60600
N17         N  0.05876622  0.43943929  0.09035208    -0.05600
N18         N  0.09030557  0.42832793  0.12541598    -0.61700
Mn19       Mn  0.50284688  0.99885400  0.09172124     1.18400
C20         C  0.10901995  0.38395182  0.11279925     0.96600
C21         C  0.39252658  0.38889772  0.11104051     0.97200
N22         N  0.06259516  0.08848293  0.44331692    -0.07900
N23         N  0.09549251  0.12209509  0.43151420    -0.64200
N24         N  0.44641337  0.05844671  0.40964785    -0.06700
N25         N  0.41434802  0.07037988  0.37490594    -0.64900
N26         N  0.44865366  0.09342160  0.44256212    -0.07400
N27         N  0.41882343  0.13014239  0.43029713    -0.64500
N28         N  0.06085195  0.05415722  0.40982939    -0.06300
N29         N  0.09245590  0.06376484  0.37473828    -0.65200
Mn30       Mn  0.50595222  0.09213194  0.50073394     1.10700
C31         C  0.11377642  0.10638099  0.38837706     0.97800
C32         C  0.39789224  0.11559651  0.38778372     0.97900
N33         N  0.44387517  0.40782019  0.44254283    -0.07400
N34         N  0.41189037  0.37337139  0.43034082    -0.62800
N35         N  0.05856823  0.43904419  0.40997475    -0.06700
N36         N  0.09047141  0.42803009  0.37528668    -0.59500
N37         N  0.05824585  0.40414595  0.44246923    -0.08100
N38         N  0.08956131  0.36841324  0.42993985    -0.62400
N39         N  0.44353761  0.44257908  0.40989059    -0.07000
N40         N  0.41101264  0.43249591  0.37518813    -0.59600
Mn41       Mn  0.00132071  0.40491723  0.99981835     1.20200
Mn42       Mn  0.00216496  0.49847185  0.40895249     1.10100
Cl43       Cl  0.00280681  0.99867603  0.00032174    -0.87500
C44         C  0.39147135  0.38905591  0.38804922     0.94800
C45         C  0.10944864  0.38372221  0.38762461     0.94600
C46         C  0.14786504  0.13551090  0.35558122    -0.04000
C47         C  0.14215885  0.35319576  0.35334499    -0.04000
C48         C  0.14375352  0.35474596  0.14595992    -0.04000
C49         C  0.14946083  0.13660568  0.14603780    -0.04000
C50         C  0.36038418  0.14626300  0.35900910    -0.04000
C51         C  0.36146637  0.14641765  0.14342176    -0.04000
C52         C  0.35740061  0.35859775  0.14195729    -0.04000
C53         C  0.35878872  0.35724089  0.35525258    -0.04000
C54         C  0.37229949  0.31358279  0.22374204    -0.14900
C55         C  0.37470852  0.35736833  0.19682798     0.07200
C56         C  0.38502107  0.40022106  0.22408969    -0.14900
C57         C  0.38580576  0.39992301  0.27511060    -0.14900
C58         C  0.37907908  0.35628143  0.30172981     0.07200
C59         C  0.37546568  0.31290206  0.27387954    -0.14900
H60         H  0.36292493  0.27901406  0.20745628     0.11200
H61         H  0.38496082  0.43562226  0.20711001     0.11200
H62         H  0.38508994  0.43518902  0.29275040     0.11200
H63         H  0.36765376  0.27806019  0.28993674     0.11200
C64         C  0.31657727  0.22630415  0.11726919    -0.14900
C65         C  0.36145858  0.19995122  0.12460755     0.07200
C66         C  0.40630330  0.22705189  0.12487092    -0.12900
C67         C  0.40527741  0.27838721  0.12270074    -0.14900
C68         C  0.35914697  0.30460746  0.12286643     0.07200
C69         C  0.31534168  0.27684113  0.11732734    -0.14900
H70         H  0.28064444  0.20942231  0.11856044     0.11200
H71         H  0.44195532  0.20881276  0.13118493     0.11200
H72         H  0.44021868  0.29762521  0.12773203     0.11200
H73         H  0.27857624  0.29253498  0.11923226     0.11200
C74         C  0.33824134  0.18052462  0.27641569    -0.14900
C75         C  0.37164878  0.15108792  0.30347816     0.07200
C76         C  0.40983101  0.12622928  0.27717924    -0.14900
C77         C  0.41023945  0.12653818  0.22570200    -0.14900
C78         C  0.37248474  0.15170638  0.19913963     0.07200
C79         C  0.33859601  0.18077246  0.22624663    -0.14900
H80         H  0.30855312  0.20095303  0.29420559     0.11200
H81         H  0.43848183  0.10520860  0.29560670     0.11200
H82         H  0.43905101  0.10558882  0.20740191     0.11200
H83         H  0.30886410  0.20110518  0.20856010     0.11200
C84         C  0.40715019  0.22626869  0.37469239    -0.14900
C85         C  0.36192964  0.19999354  0.37793514     0.07200
C86         C  0.31828976  0.22721825  0.38902074    -0.14900
C87         C  0.31790901  0.27794418  0.38806332    -0.14900
C88         C  0.36108932  0.30411836  0.37564823     0.07200
C89         C  0.40690945  0.27756811  0.37467731    -0.14900
H90         H  0.44203325  0.20718454  0.36696433     0.11200
H91         H  0.28229197  0.21092596  0.39291129     0.11200
H92         H  0.28192377  0.29515095  0.39267621     0.11200
H93         H  0.44160322  0.29615310  0.36693481     0.11200
C94         C  0.22907929  0.12360431  0.09447303    -0.14900
C95         C  0.20400134  0.11658415  0.13900312     0.07200
C96         C  0.23361553  0.09844479  0.17747186    -0.14900
C97         C  0.28559910  0.09867442  0.17534654    -0.14900
C98         C  0.30985427  0.12089477  0.13633065     0.07200
C99         C  0.28197741  0.12437731  0.09279661    -0.14900
H100        H  0.20809314  0.13468452  0.06265029     0.11200
H101        H  0.21861177  0.08814133  0.21143134     0.11200
H102        H  0.30616649  0.08706132  0.20714870     0.11200
H103        H  0.29994214  0.13647695  0.05995150     0.11200
C104        C  0.18763194  0.27204050  0.15605887    -0.14900
C105        C  0.14868181  0.29884685  0.13334178     0.07200
C106        C  0.10972221  0.27095180  0.11215272    -0.14900
C107        C  0.11073509  0.21934946  0.11272175    -0.14900
C108        C  0.15100266  0.19278250  0.13407651     0.07200
C109        C  0.18878411  0.22099193  0.15634765    -0.14900
H110        H  0.21564835  0.29071431  0.17755463     0.11200
H111        H  0.07547099  0.28811789  0.09975046     0.11200
H112        H  0.07710498  0.20128097  0.10078304     0.11200
H113        H  0.21775792  0.20342092  0.17780541     0.11200
C114        C  0.22278815  0.37280257  0.09524186    -0.14900
C115        C  0.19713645  0.37699886  0.13996853     0.07200
C116        C  0.22503407  0.39640421  0.17886378    -0.14900
C117        C  0.27688305  0.39874457  0.17720681    -0.14900
C118        C  0.30347217  0.38095437  0.13695773     0.07200
C119        C  0.27557803  0.37683573  0.09334705    -0.14900
H120        H  0.20287810  0.36107965  0.06300336     0.11200
H121        H  0.20913150  0.40711103  0.21258365     0.11200
H122        H  0.29511269  0.41157333  0.20941073     0.11200
H123        H  0.29447104  0.36734687  0.05988940     0.11200
C124        C  0.10252910  0.31786730  0.27447317    -0.14900
C125        C  0.11877789  0.35847152  0.30143346     0.07200
C126        C  0.12088738  0.40334306  0.27601052    -0.14900
C127        C  0.12100980  0.40373074  0.22514092    -0.14900
C128        C  0.12231261  0.35914178  0.19886326     0.07200
C129        C  0.10429389  0.31819050  0.22407985    -0.14900
H130        H  0.09212443  0.28446247  0.29167772     0.11200
H131        H  0.13056345  0.43693960  0.29454245     0.11200
H132        H  0.12899915  0.43800935  0.20756052     0.11200
H133        H  0.09418779  0.28507721  0.20559466     0.11200
C134        C  0.22301774  0.38302936  0.39745635    -0.14900
C135        C  0.19615924  0.37442376  0.35390421     0.07200
C136        C  0.22412351  0.37361137  0.31092315    -0.14900
C137        C  0.27568000  0.37501930  0.31117208    -0.14900
C138        C  0.30356630  0.37683869  0.35454799     0.07200
C139        C  0.27606030  0.38553807  0.39763060    -0.14900
H140        H  0.20354635  0.38331374  0.43176598     0.11200
H141        H  0.20773495  0.36205586  0.27718280     0.11200
H142        H  0.29238172  0.36708127  0.27676066     0.11200
H143        H  0.29548310  0.38732843  0.43210357     0.11200
C144        C  0.11089153  0.17154053  0.27582800    -0.14900
C145        C  0.12822537  0.13062465  0.30197618     0.07200
C146        C  0.12876946  0.08594425  0.27569901    -0.14900
C147        C  0.12991776  0.08623594  0.22465239    -0.14900
C148        C  0.12966552  0.13117248  0.19927707     0.07200
C149        C  0.11130778  0.17170742  0.22562802    -0.14900
H150        H  0.09957002  0.20487732  0.29335591     0.11200
H151        H  0.13647012  0.05169206  0.29383794     0.11200
H152        H  0.13847624  0.05217787  0.20612747     0.11200
H153        H  0.09993372  0.20500817  0.20821821     0.11200
C154        C  0.23203766  0.09737862  0.32403522    -0.14900
C155        C  0.20243460  0.11508692  0.36268898     0.07200
C156        C  0.22789087  0.12237345  0.40731583    -0.14900
C157        C  0.28080186  0.12424445  0.40890083    -0.14900
C158        C  0.30829755  0.12160957  0.36530780     0.07200
C159        C  0.28399951  0.09910328  0.32594415    -0.14900
H160        H  0.21698784  0.08615408  0.29013415     0.11200
H161        H  0.20706533  0.13297611  0.43934467     0.11200
H162        H  0.29895247  0.13609985  0.44206023     0.11200
H163        H  0.30439510  0.08770303  0.29400551     0.11200
C164        C  0.18902190  0.21892213  0.35086229    -0.14900
C165        C  0.14905364  0.19141505  0.36888762     0.07200
C166        C  0.10671468  0.21853716  0.38551841    -0.14900
C167        C  0.10542855  0.27024691  0.38444167    -0.14900
C168        C  0.14646381  0.29750379  0.36707033     0.07200
C169        C  0.18802046  0.26967694  0.35039393    -0.14900
H170        H  0.22024160  0.20111850  0.33286890     0.11200
H171        H  0.07228861  0.20032961  0.39451141     0.11200
H172        H  0.07025598  0.28821609  0.39292419     0.11200
H173        H  0.21936592  0.28607318  0.33276566     0.11200
N174        N  0.44935980  0.09378001  0.55928596    -0.07700
N175        N  0.41972759  0.13055370  0.57210463    -0.59800
N176        N  0.06179383  0.05465330  0.59116829    -0.07400
N177        N  0.09378658  0.06461658  0.62624483    -0.61900
N178        N  0.06350435  0.08854478  0.55771065    -0.07000
N179        N  0.09686941  0.12202258  0.56945545    -0.59800
N180        N  0.44736984  0.05884022  0.59176470    -0.06600
N181        N  0.41582445  0.07087571  0.62678023    -0.62300
C182        C  0.39932549  0.11611463  0.61455591     0.94500
C183        C  0.11534276  0.10696041  0.61268934     0.94300
N184        N  0.05845970  0.40453952  0.55739004    -0.07900
N185        N  0.08967333  0.36881824  0.56983157    -0.60400
N186        N  0.44429061  0.44259395  0.59012574    -0.06000
N187        N  0.41194755  0.43245022  0.62454745    -0.61600
N188        N  0.44446965  0.40777486  0.55703959    -0.07900
N189        N  0.41260970  0.37323658  0.56862326    -0.60600
N190        N  0.05877038  0.43943597  0.59035103    -0.05600
N191        N  0.09031059  0.42832511  0.62541422    -0.61700
Mn192      Mn  0.50285135  0.99885054  0.59172113     1.18400
C193        C  0.10902446  0.38394877  0.61279771     0.96600
C194        C  0.39253102  0.38889404  0.61104109     0.97200
N195        N  0.06259088  0.08848560  0.94331632    -0.07900
N196        N  0.09548864  0.12209731  0.93151342    -0.64200
N197        N  0.44640834  0.05844879  0.90964907    -0.06700
N198        N  0.41434234  0.07038139  0.87490772    -0.64900
N199        N  0.44864957  0.09342431  0.94256263    -0.07400
N200        N  0.41881937  0.13014506  0.93029761    -0.64500
N201        N  0.06084683  0.05416006  0.90982858    -0.06300
N202        N  0.09245056  0.06376741  0.87473725    -0.65200
Mn203      Mn  0.50594839  0.09213505  0.00073378     1.10700
C204        C  0.11377199  0.10638308  0.88837608     0.97800
C205        C  0.39788731  0.11559834  0.88778493     0.97900
N206        N  0.44387146  0.40782259  0.94254333    -0.07400
N207        N  0.41188708  0.37337336  0.93034157    -0.62800
N208        N  0.05856362  0.43904655  0.90997343    -0.06700
N209        N  0.09046574  0.42803172  0.87528454    -0.59500
N210        N  0.05824218  0.40414887  0.94246859    -0.08100
N211        N  0.08955730  0.36841593  0.92993895    -0.62400
N212        N  0.44353281  0.44258168  0.90989134    -0.07000
N213        N  0.41100742  0.43249827  0.87518932    -0.59600
Mn214      Mn  0.00132401  0.40491406  0.49981821     1.20200
Mn215      Mn  0.00216016  0.49847446  0.90895240     1.10100
Cl216      Cl  0.00281042  0.99867293  0.50032179    -0.87500
C217        C  0.39146736  0.38905771  0.88805023     0.94800
C218        C  0.10944357  0.38372412  0.88762293     0.94600
C219        C  0.14786137  0.13551235  0.85558038    -0.04000
C220        C  0.14215480  0.35319744  0.85334411    -0.04000
C221        C  0.14375791  0.35474317  0.64595842    -0.04000
C222        C  0.14946494  0.13660306  0.64603677    -0.04000
C223        C  0.36038017  0.14626441  0.85900946    -0.04000
C224        C  0.36146997  0.14641391  0.64342219    -0.04000
C225        C  0.35740406  0.35859440  0.64195718    -0.04000
C226        C  0.35878442  0.35724242  0.85525411    -0.04000
C227        C  0.37229102  0.31358082  0.72374370    -0.14900
C228        C  0.37470912  0.35736504  0.69682866     0.07200
C229        C  0.38502487  0.40021731  0.72409009    -0.14900
C230        C  0.38580730  0.39992032  0.77511108    -0.14900
C231        C  0.37907437  0.35628030  0.80173107     0.07200
C232        C  0.37545421  0.31290101  0.77388138    -0.14900
H233        H  0.36291198  0.27901334  0.70745797     0.11200
H234        H  0.38496959  0.43561808  0.70711010     0.11200
H235        H  0.38509557  0.43518681  0.79274986     0.11200
H236        H  0.36763564  0.27806097  0.78993921     0.11200
C237        C  0.31658288  0.22630037  0.61726498    -0.14900
C238        C  0.36146336  0.19994749  0.62460778     0.07200
C239        C  0.40630807  0.22704826  0.62487506    -0.12900
C240        C  0.40528233  0.27838362  0.62270557    -0.14900
C241        C  0.35915189  0.30460385  0.62286685     0.07200
C242        C  0.31534717  0.27683739  0.61732312    -0.14900
H243        H  0.28064967  0.20941856  0.61855248     0.11200
H244        H  0.44195958  0.20880901  0.63119186     0.11200
H245        H  0.44022309  0.29762177  0.62773992     0.11200
H246        H  0.27858144  0.29253081  0.61922441     0.11200
C247        C  0.33823999  0.18052333  0.77641448    -0.14900
C248        C  0.37164636  0.15108730  0.80347867     0.07200
C249        C  0.40982926  0.12622738  0.77718153    -0.14900
C250        C  0.41023952  0.12653481  0.72570429    -0.14900
C251        C  0.37248644  0.15170328  0.69914024     0.07200
C252        C  0.33859679  0.18077010  0.72624546    -0.14900
H253        H  0.30855129  0.20095229  0.79420301     0.11200
H254        H  0.43847936  0.10520715  0.79561018     0.11200
H255        H  0.43905117  0.10558439  0.70740558     0.11200
H256        H  0.30886575  0.20110266  0.70855732     0.11200
C257        C  0.40714595  0.22627038  0.87469172    -0.14900
C258        C  0.36192542  0.19999528  0.87793446     0.07200
C259        C  0.31828569  0.22721986  0.88902074    -0.14900
C260        C  0.31790495  0.27794577  0.88806487    -0.14900
C261        C  0.36108524  0.30412020  0.87565033     0.07200
C262        C  0.40690527  0.27756978  0.87467777    -0.14900
H263        H  0.44202889  0.20718623  0.86696319     0.11200
H264        H  0.28228778  0.21092752  0.89291104     0.11200
H265        H  0.28191969  0.29515227  0.89267788     0.11200
H266        H  0.44159897  0.29615485  0.86693510     0.11200
C267        C  0.22908344  0.12359969  0.59447258    -0.14900
C268        C  0.20400511  0.11658059  0.63900270     0.07200
C269        C  0.23361873  0.09844145  0.67747179    -0.14900
C270        C  0.28560230  0.09867059  0.67534662    -0.14900
C271        C  0.30985794  0.12089080  0.63633074     0.07200
C272        C  0.28198158  0.12437236  0.59279642    -0.14900
H273        H  0.20809756  0.13467955  0.56264954     0.11200
H274        H  0.21861428  0.08813853  0.71143145     0.11200
H275        H  0.30616939  0.08705753  0.70714908     0.11200
H276        H  0.29994661  0.13647129  0.55995124     0.11200
C277        C  0.18763734  0.27203772  0.65605532    -0.14900
C278        C  0.14868595  0.29884402  0.63334020     0.07200
C279        C  0.10972535  0.27094894  0.61215289    -0.14900
C280        C  0.11073839  0.21934658  0.61272178    -0.14900
C281        C  0.15100730  0.19277961  0.63407424     0.07200
C282        C  0.18878993  0.22098909  0.65634352    -0.14900
H283        H  0.21565480  0.29071148  0.67754981     0.11200
H284        H  0.07547340  0.28811504  0.59975252     0.11200
H285        H  0.07710768  0.20127794  0.60078496     0.11200
H286        H  0.21776496  0.20341819  0.67779974     0.11200
C287        C  0.22279237  0.37279878  0.59524008    -0.14900
C288        C  0.19714064  0.37699608  0.63996668     0.07200
C289        C  0.22503790  0.39640292  0.67886139    -0.14900
C290        C  0.27688684  0.39874360  0.67720418    -0.14900
C291        C  0.30347596  0.38095119  0.63695606     0.07200
C292        C  0.27558223  0.37683194  0.59334531    -0.14900
H293        H  0.20288237  0.36107512  0.56300187     0.11200
H294        H  0.20913497  0.40711107  0.71258068     0.11200
H295        H  0.29511683  0.41157457  0.70940717     0.11200
H296        H  0.29447543  0.36734230  0.55988788     0.11200
C297        C  0.10252851  0.31786715  0.77447147    -0.14900
C298        C  0.11877538  0.35847220  0.80143178     0.07200
C299        C  0.12088583  0.40334311  0.77600800    -0.14900
C300        C  0.12101256  0.40372935  0.72513835    -0.14900
C301        C  0.12231679  0.35913971  0.69886163     0.07200
C302        C  0.10429724  0.31818883  0.72407822    -0.14900
H303        H  0.09212246  0.28446305  0.79167609     0.11200
H304        H  0.13056012  0.43694021  0.79453988     0.11200
H305        H  0.12900270  0.43800756  0.70755778     0.11200
H306        H  0.09419244  0.28507528  0.70559348     0.11200
C307        C  0.22301320  0.38302947  0.89745766    -0.14900
C308        C  0.19615529  0.37442550  0.85390485     0.07200
C309        C  0.22412023  0.37361557  0.81092413    -0.14900
C310        C  0.27567661  0.37502567  0.81117360    -0.14900
C311        C  0.30356224  0.37684098  0.85454993     0.07200
C312        C  0.27605580  0.38553827  0.89763273    -0.14900
H313        H  0.20354138  0.38331221  0.93176711     0.11200
H314        H  0.20773274  0.36206126  0.77718306     0.11200
H315        H  0.29237890  0.36709208  0.77676156     0.11200
H316        H  0.29547817  0.38732665  0.93210591     0.11200
C317        C  0.11089164  0.17154104  0.77582550    -0.14900
C318        C  0.12822305  0.13062525  0.80197502     0.07200
C319        C  0.12876746  0.08594439  0.77569858    -0.14900
C320        C  0.12991929  0.08623532  0.72465207    -0.14900
C321        C  0.12966882  0.13117134  0.69927594     0.07200
C322        C  0.11131085  0.17170708  0.72562559    -0.14900
H323        H  0.09957017  0.20487822  0.79335236     0.11200
H324        H  0.13646649  0.05169234  0.79383839     0.11200
H325        H  0.13847824  0.05217668  0.70612810     0.11200
H326        H  0.09993829  0.20500770  0.70821501     0.11200
C327        C  0.23203423  0.09737927  0.82403566    -0.14900
C328        C  0.20243081  0.11508836  0.86268889     0.07200
C329        C  0.22788675  0.12237547  0.90731576    -0.14900
C330        C  0.28079769  0.12424643  0.90890107    -0.14900
C331        C  0.30829355  0.12161129  0.86530813     0.07200
C332        C  0.28399592  0.09910436  0.82594476    -0.14900
H333        H  0.21698492  0.08615385  0.79013459     0.11200
H334        H  0.20706092  0.13297854  0.93934434     0.11200
H335        H  0.29894811  0.13610215  0.94206050     0.11200
H336        H  0.30439178  0.08770363  0.79400628     0.11200
C337        C  0.18901814  0.21892391  0.85086173    -0.14900
C338        C  0.14904958  0.19141671  0.86888640     0.07200
C339        C  0.10671025  0.21853877  0.88551643    -0.14900
C340        C  0.10542414  0.27024859  0.88444036    -0.14900
C341        C  0.14645972  0.29750556  0.86706982     0.07200
C342        C  0.18801656  0.26967885  0.85039360    -0.14900
H343        H  0.22023796  0.20112040  0.83286872     0.11200
H344        H  0.07228399  0.20033113  0.89450880     0.11200
H345        H  0.07025166  0.28821780  0.89292275     0.11200
H346        H  0.21936206  0.28607549  0.83276559     0.11200
N347        N  0.44935570  0.59378360  0.05928531    -0.07700
N348        N  0.41972357  0.63055741  0.07210379    -0.59800
N349        N  0.06178941  0.55465671  0.09116866    -0.07400
N350        N  0.09378187  0.56461985  0.12624551    -0.61900
N351        N  0.06350052  0.58854796  0.05771086    -0.07000
N352        N  0.09686581  0.62202552  0.06945587    -0.59800
N353        N  0.44736520  0.55884364  0.09176384    -0.06600
N354        N  0.41581948  0.57087913  0.12677900    -0.62300
C355        C  0.39932102  0.61611824  0.11455480     0.94500
C356        C  0.11533861  0.60696337  0.11269004     0.94300
N357        N  0.05845643  0.90454337  0.05739056    -0.07900
N358        N  0.08966988  0.86882204  0.06983240    -0.60400
N359        N  0.44428634  0.94259756  0.09012545    -0.06000
N360        N  0.41194295  0.93245401  0.12454691    -0.61600
N361        N  0.44446583  0.90777830  0.05703950    -0.07900
N362        N  0.41260568  0.87324013  0.06862294    -0.60600
N363        N  0.05876621  0.93943937  0.09035205    -0.05600
N364        N  0.09030557  0.92832806  0.12541596    -0.61700
Mn365      Mn  0.50284686  0.49885403  0.09172124     1.18400
C366        C  0.10901993  0.88395193  0.11279925     0.96600
C367        C  0.39252661  0.88889777  0.11104054     0.97200
N368        N  0.06259511  0.58848292  0.44331692    -0.07900
N369        N  0.09549244  0.62209513  0.43151418    -0.64200
N370        N  0.44641345  0.55844663  0.40964781    -0.06700
N371        N  0.41434820  0.57037992  0.37490588    -0.64900
N372        N  0.44865378  0.59342150  0.44256212    -0.07400
N373        N  0.41882366  0.63014236  0.43029714    -0.64500
N374        N  0.06085193  0.55415723  0.40982940    -0.06300
N375        N  0.09245589  0.56376484  0.37473830    -0.65200
Mn376      Mn  0.50595223  0.59213185  0.50073395     1.10700
C377        C  0.11377637  0.60638100  0.38837707     0.97800
C378        C  0.39789244  0.61559654  0.38778372     0.97900
N379        N  0.44387519  0.90782011  0.44254279    -0.07400
N380        N  0.41189034  0.87337136  0.43034076    -0.62800
N381        N  0.05856817  0.93904417  0.40997478    -0.06700
N382        N  0.09047140  0.92803015  0.37528672    -0.59500
N383        N  0.05824584  0.90414588  0.44246920    -0.08100
N384        N  0.08956132  0.86841320  0.42993978    -0.62400
N385        N  0.44353761  0.94257907  0.40989063    -0.07000
N386        N  0.41101258  0.93249600  0.37518819    -0.59600
Mn387      Mn  0.00132067  0.90491727  0.99981836     1.20200
Mn388      Mn  0.00216495  0.99847189  0.40895252     1.10100
Cl389      Cl  0.00280684  0.49867612  0.00032174    -0.87500
C390        C  0.39147131  0.88905597  0.38804921     0.94800
C391        C  0.10944865  0.88372225  0.38762459     0.94600
C392        C  0.14786500  0.63551088  0.35558123    -0.04000
C393        C  0.14215884  0.85319576  0.35334497    -0.04000
C394        C  0.14375347  0.85474601  0.14595992    -0.04000
C395        C  0.14946084  0.63660574  0.14603780    -0.04000
C396        C  0.36038427  0.64626298  0.35900914    -0.04000
C397        C  0.36146635  0.64641767  0.14342177    -0.04000
C398        C  0.35740062  0.85859780  0.14195729    -0.04000
C399        C  0.35878873  0.85724094  0.35525256    -0.04000
C400        C  0.37229947  0.81358277  0.22374204    -0.14900
C401        C  0.37470849  0.85736833  0.19682798     0.07200
C402        C  0.38502102  0.90022105  0.22408969    -0.14900
C403        C  0.38580575  0.89992295  0.27511057    -0.14900
C404        C  0.37907907  0.85628143  0.30172980     0.07200
C405        C  0.37546564  0.81290210  0.27387952    -0.14900
H406        H  0.36292494  0.77901405  0.20745626     0.11200
H407        H  0.38496075  0.93562222  0.20711003     0.11200
H408        H  0.38508993  0.93518905  0.29275046     0.11200
H409        H  0.36765368  0.77806013  0.28993682     0.11200
C410        C  0.31657731  0.72630422  0.11726919    -0.14900
C411        C  0.36145858  0.69995125  0.12460756     0.07200
C412        C  0.40630333  0.72705186  0.12487093    -0.12900
C413        C  0.40527741  0.77838718  0.12270075    -0.14900
C414        C  0.35914699  0.80460751  0.12286643     0.07200
C415        C  0.31534169  0.77684118  0.11732735    -0.14900
H416        H  0.28064444  0.70942236  0.11856038     0.11200
H417        H  0.44195530  0.70881272  0.13118493     0.11200
H418        H  0.44021875  0.79762516  0.12773202     0.11200
H419        H  0.27857623  0.79253500  0.11923233     0.11200
C420        C  0.33824133  0.68052450  0.27641569    -0.14900
C421        C  0.37164880  0.65108784  0.30347818     0.07200
C422        C  0.40983099  0.62622914  0.27717923    -0.14900
C423        C  0.41023940  0.62653807  0.22570199    -0.14900
C424        C  0.37248473  0.65170635  0.19913963     0.07200
C425        C  0.33859601  0.68077238  0.22624666    -0.14900
H426        H  0.30855312  0.70095297  0.29420565     0.11200
H427        H  0.43848183  0.60520854  0.29560664     0.11200
H428        H  0.43905093  0.60558871  0.20740189     0.11200
H429        H  0.30886406  0.70110516  0.20856009     0.11200
C430        C  0.40715023  0.72626873  0.37469238    -0.14900
C431        C  0.36192970  0.69999356  0.37793515     0.07200
C432        C  0.31828979  0.72721824  0.38902073    -0.14900
C433        C  0.31790903  0.77794423  0.38806331    -0.14900
C434        C  0.36108936  0.80411841  0.37564824     0.07200
C435        C  0.40690949  0.77756815  0.37467730    -0.14900
H436        H  0.44203330  0.70718456  0.36696430     0.11200
H437        H  0.28229212  0.71092595  0.39291124     0.11200
H438        H  0.28192386  0.79515093  0.39267615     0.11200
H439        H  0.44160327  0.79615315  0.36693477     0.11200
C440        C  0.22907929  0.62360439  0.09447304    -0.14900
C441        C  0.20400133  0.61658416  0.13900313     0.07200
C442        C  0.23361554  0.59844483  0.17747185    -0.14900
C443        C  0.28559910  0.59867438  0.17534652    -0.14900
C444        C  0.30985425  0.62089481  0.13633065     0.07200
C445        C  0.28197739  0.62437731  0.09279662    -0.14900
H446        H  0.20809315  0.63468474  0.06265034     0.11200
H447        H  0.21861173  0.58814138  0.21143140     0.11200
H448        H  0.30616651  0.58706121  0.20714863     0.11200
H449        H  0.29994215  0.63647692  0.05995147     0.11200
C450        C  0.18763194  0.77204058  0.15605887    -0.14900
C451        C  0.14868180  0.79884693  0.13334179     0.07200
C452        C  0.10972217  0.77095192  0.11215270    -0.14900
C453        C  0.11073515  0.71934958  0.11272179    -0.14900
C454        C  0.15100270  0.69278258  0.13407650     0.07200
C455        C  0.18878423  0.72099198  0.15634762    -0.14900
H456        H  0.21564834  0.79071441  0.17755469     0.11200
H457        H  0.07547101  0.78811795  0.09975048     0.11200
H458        H  0.07710499  0.70128107  0.10078301     0.11200
H459        H  0.21775801  0.70342101  0.17780525     0.11200
C460        C  0.22278812  0.87280245  0.09524185    -0.14900
C461        C  0.19713643  0.87699880  0.13996853     0.07200
C462        C  0.22503405  0.89640409  0.17886377    -0.14900
C463        C  0.27688301  0.89874447  0.17720683    -0.14900
C464        C  0.30347217  0.88095441  0.13695771     0.07200
C465        C  0.27557802  0.87683568  0.09334702    -0.14900
H466        H  0.20287806  0.86107960  0.06300336     0.11200
H467        H  0.20913141  0.90711099  0.21258362     0.11200
H468        H  0.29511262  0.91157322  0.20941078     0.11200
H469        H  0.29447101  0.86734687  0.05988939     0.11200
C470        C  0.10252907  0.81786715  0.27447319    -0.14900
C471        C  0.11877785  0.85847146  0.30143345     0.07200
C472        C  0.12088731  0.90334294  0.27601051    -0.14900
C473        C  0.12100976  0.90373075  0.22514091    -0.14900
C474        C  0.12231256  0.85914176  0.19886326     0.07200
C475        C  0.10429388  0.81819039  0.22407982    -0.14900
H476        H  0.09212441  0.78446247  0.29167767     0.11200
H477        H  0.13056341  0.93693957  0.29454252     0.11200
H478        H  0.12899907  0.93800926  0.20756061     0.11200
H479        H  0.09418783  0.78507720  0.20559471     0.11200
C480        C  0.22301780  0.88302923  0.39745638    -0.14900
C481        C  0.19615926  0.87442374  0.35390423     0.07200
C482        C  0.22412349  0.87361146  0.31092316    -0.14900
C483        C  0.27567998  0.87501923  0.31117208    -0.14900
C484        C  0.30356632  0.87683872  0.35454796     0.07200
C485        C  0.27606037  0.88553803  0.39763062    -0.14900
H486        H  0.20354643  0.88331366  0.43176601     0.11200
H487        H  0.20773489  0.86205610  0.27718278     0.11200
H488        H  0.29238166  0.86708111  0.27676067     0.11200
H489        H  0.29548319  0.88732842  0.43210350     0.11200
C490        C  0.11089150  0.67154058  0.27582803    -0.14900
C491        C  0.12822531  0.63062464  0.30197618     0.07200
C492        C  0.12876940  0.58594424  0.27569899    -0.14900
C493        C  0.12991771  0.58623601  0.22465239    -0.14900
C494        C  0.12966552  0.63117253  0.19927708     0.07200
C495        C  0.11130780  0.67170747  0.22562802    -0.14900
H496        H  0.09957004  0.70487723  0.29335587     0.11200
H497        H  0.13647006  0.55169205  0.29383788     0.11200
H498        H  0.13847623  0.55217785  0.20612740     0.11200
H499        H  0.09993376  0.70500819  0.20821822     0.11200
C500        C  0.23203766  0.59737878  0.32403521    -0.14900
C501        C  0.20243459  0.61508694  0.36268899     0.07200
C502        C  0.22789087  0.62237336  0.40731586    -0.14900
C503        C  0.28080187  0.62424433  0.40890083    -0.14900
C504        C  0.30829762  0.62160951  0.36530783     0.07200
C505        C  0.28399950  0.59910339  0.32594412    -0.14900
H506        H  0.21698778  0.58615422  0.29013411     0.11200
H507        H  0.20706534  0.63297593  0.43934466     0.11200
H508        H  0.29895249  0.63609973  0.44206033     0.11200
H509        H  0.30439505  0.58770315  0.29400543     0.11200
C510        C  0.18902187  0.71892207  0.35086229    -0.14900
C511        C  0.14905358  0.69141503  0.36888763     0.07200
C512        C  0.10671464  0.71853716  0.38551840    -0.14900
C513        C  0.10542847  0.77024694  0.38444169    -0.14900
C514        C  0.14646380  0.79750378  0.36707035     0.07200
C515        C  0.18802040  0.76967689  0.35039394    -0.14900
H516        H  0.22024150  0.70111844  0.33286892     0.11200
H517        H  0.07228855  0.70032965  0.39451139     0.11200
H518        H  0.07025604  0.78821605  0.39292417     0.11200
H519        H  0.21936591  0.78607315  0.33276562     0.11200
N520        N  0.44935973  0.59377992  0.55928593    -0.07700
N521        N  0.41972756  0.63055365  0.57210457    -0.59800
N522        N  0.06179384  0.55465330  0.59116829    -0.07400
N523        N  0.09378655  0.56461664  0.62624486    -0.61900
N524        N  0.06350435  0.58854473  0.55771063    -0.07000
N525        N  0.09686935  0.62202259  0.56945544    -0.59800
N526        N  0.44736979  0.55884020  0.59176473    -0.06600
N527        N  0.41582445  0.57087577  0.62678029    -0.62300
C528        C  0.39932552  0.61611468  0.61455592     0.94500
C529        C  0.11534272  0.60696045  0.61268934     0.94300
N530        N  0.05845973  0.90453952  0.55739005    -0.07900
N531        N  0.08967335  0.86881822  0.56983163    -0.60400
N532        N  0.44429059  0.94259397  0.59012575    -0.06000
N533        N  0.41194752  0.93245027  0.62454745    -0.61600
N534        N  0.44446960  0.90777490  0.55703958    -0.07900
N535        N  0.41260963  0.87323663  0.56862324    -0.60600
N536        N  0.05877038  0.93943595  0.59035102    -0.05600
N537        N  0.09031061  0.92832514  0.62541422    -0.61700
Mn538      Mn  0.50285136  0.49885056  0.59172115     1.18400
C539        C  0.10902448  0.88394880  0.61279771     0.96600
C540        C  0.39253100  0.88889409  0.61104108     0.97200
N541        N  0.06259096  0.58848554  0.94331635    -0.07900
N542        N  0.09548881  0.62209718  0.93151351    -0.64200
N543        N  0.44640838  0.55844873  0.90964909    -0.06700
N544        N  0.41434238  0.57038132  0.87490773    -0.64900
N545        N  0.44864962  0.59342425  0.94256263    -0.07400
N546        N  0.41881951  0.63014505  0.93029754    -0.64500
N547        N  0.06084683  0.55416007  0.90982856    -0.06300
N548        N  0.09245049  0.56376744  0.87473717    -0.65200
Mn549      Mn  0.50594840  0.59213513  0.00073378     1.10700
C550        C  0.11377202  0.60638304  0.88837608     0.97800
C551        C  0.39788743  0.61559832  0.88778488     0.97900
N552        N  0.44387141  0.90782259  0.94254336    -0.07400
N553        N  0.41188705  0.87337330  0.93034160    -0.62800
N554        N  0.05856359  0.93904647  0.90997343    -0.06700
N555        N  0.09046575  0.92803169  0.87528458    -0.59500
N556        N  0.05824212  0.90414877  0.94246858    -0.08100
N557        N  0.08955724  0.86841584  0.92993892    -0.62400
N558        N  0.44353277  0.94258161  0.90989133    -0.07000
N559        N  0.41100740  0.93249817  0.87518929    -0.59600
Mn560      Mn  0.00132411  0.90491395  0.49981819     1.20200
Mn561      Mn  0.00216013  0.99847440  0.90895240     1.10100
Cl562      Cl  0.00281042  0.49867299  0.50032179    -0.87500
C563        C  0.39146733  0.88905764  0.88805024     0.94800
C564        C  0.10944354  0.88372407  0.88762292     0.94600
C565        C  0.14786137  0.63551237  0.85558040    -0.04000
C566        C  0.14215478  0.85319748  0.85334411    -0.04000
C567        C  0.14375792  0.85474316  0.64595841    -0.04000
C568        C  0.14946491  0.63660311  0.64603678    -0.04000
C569        C  0.36038021  0.64626443  0.85900946    -0.04000
C570        C  0.36146996  0.64641395  0.64342218    -0.04000
C571        C  0.35740407  0.85859445  0.64195717    -0.04000
C572        C  0.35878437  0.85724237  0.85525410    -0.04000
C573        C  0.37229104  0.81358089  0.72374371    -0.14900
C574        C  0.37470921  0.85736506  0.69682863     0.07200
C575        C  0.38502491  0.90021728  0.72409012    -0.14900
C576        C  0.38580727  0.89992026  0.77511107    -0.14900
C577        C  0.37907433  0.85628028  0.80173108     0.07200
C578        C  0.37545418  0.81290101  0.77388137    -0.14900
H579        H  0.36291191  0.77901334  0.70745791     0.11200
H580        H  0.38496958  0.93561816  0.70711007     0.11200
H581        H  0.38509551  0.93518685  0.79274992     0.11200
H582        H  0.36763560  0.77806100  0.78993918     0.11200
C583        C  0.31658280  0.72630037  0.61726497    -0.14900
C584        C  0.36146332  0.69994752  0.62460774     0.07200
C585        C  0.40630802  0.72704829  0.62487505    -0.12900
C586        C  0.40528226  0.77838363  0.62270556    -0.14900
C587        C  0.35915186  0.80460388  0.62286683     0.07200
C588        C  0.31534709  0.77683744  0.61732312    -0.14900
H589        H  0.28064969  0.70941857  0.61855247     0.11200
H590        H  0.44195953  0.70880903  0.63119186     0.11200
H591        H  0.44022309  0.79762179  0.62773992     0.11200
H592        H  0.27858146  0.79253086  0.61922437     0.11200
C593        C  0.33823997  0.68052348  0.77641449    -0.14900
C594        C  0.37164635  0.65108741  0.80347866     0.07200
C595        C  0.40982921  0.62622758  0.77718150    -0.14900
C596        C  0.41023954  0.62653501  0.72570430    -0.14900
C597        C  0.37248646  0.65170345  0.69914022     0.07200
C598        C  0.33859681  0.68077028  0.72624545    -0.14900
H599        H  0.30855125  0.70095241  0.79420301     0.11200
H600        H  0.43847935  0.60520724  0.79561026     0.11200
H601        H  0.43905118  0.60558453  0.70740561     0.11200
H602        H  0.30886575  0.70110279  0.70855729     0.11200
C603        C  0.40714593  0.72627045  0.87469172    -0.14900
C604        C  0.36192544  0.69999529  0.87793449     0.07200
C605        C  0.31828565  0.72721981  0.88902074    -0.14900
C606        C  0.31790490  0.77794574  0.88806487    -0.14900
C607        C  0.36108518  0.80412020  0.87565032     0.07200
C608        C  0.40690522  0.77756985  0.87467778    -0.14900
H609        H  0.44202890  0.70718634  0.86696319     0.11200
H610        H  0.28228784  0.71092748  0.89291105     0.11200
H611        H  0.28191963  0.79515216  0.89267790     0.11200
H612        H  0.44159889  0.79615495  0.86693511     0.11200
C613        C  0.22908342  0.62359980  0.59447260    -0.14900
C614        C  0.20400510  0.61658067  0.63900272     0.07200
C615        C  0.23361870  0.59844137  0.67747176    -0.14900
C616        C  0.28560230  0.59867051  0.67534664    -0.14900
C617        C  0.30985794  0.62089075  0.63633075     0.07200
C618        C  0.28198156  0.62437229  0.59279644    -0.14900
H619        H  0.20809758  0.63467973  0.56264960     0.11200
H620        H  0.21861425  0.58813837  0.71143140     0.11200
H621        H  0.30616937  0.58705753  0.70714910     0.11200
H622        H  0.29994662  0.63647118  0.55995121     0.11200
C623        C  0.18763744  0.77203771  0.65605528    -0.14900
C624        C  0.14868597  0.79884399  0.63334020     0.07200
C625        C  0.10972536  0.77094889  0.61215293    -0.14900
C626        C  0.11073839  0.71934655  0.61272179    -0.14900
C627        C  0.15100730  0.69277962  0.63407426     0.07200
C628        C  0.18878994  0.72098908  0.65634353    -0.14900
H629        H  0.21565487  0.79071144  0.67754969     0.11200
H630        H  0.07547340  0.78811500  0.59975255     0.11200
H631        H  0.07710766  0.70127790  0.60078502     0.11200
H632        H  0.21776495  0.70341815  0.67779980     0.11200
C633        C  0.22279237  0.87279889  0.59524008    -0.14900
C634        C  0.19714065  0.87699604  0.63996668     0.07200
C635        C  0.22503791  0.89640277  0.67886143    -0.14900
C636        C  0.27688683  0.89874352  0.67720421    -0.14900
C637        C  0.30347597  0.88095126  0.63695606     0.07200
C638        C  0.27558221  0.87683210  0.59334530    -0.14900
H639        H  0.20288235  0.86107522  0.56300183     0.11200
H640        H  0.20913494  0.90711091  0.71258070     0.11200
H641        H  0.29511684  0.91157447  0.70940726     0.11200
H642        H  0.29447542  0.86734244  0.55988785     0.11200
C643        C  0.10252868  0.81786731  0.77447143    -0.14900
C644        C  0.11877541  0.85847233  0.80143177     0.07200
C645        C  0.12088580  0.90334329  0.77600801    -0.14900
C646        C  0.12101256  0.90372949  0.72513831    -0.14900
C647        C  0.12231681  0.85913978  0.69886162     0.07200
C648        C  0.10429727  0.81818898  0.72407824    -0.14900
H649        H  0.09212268  0.78446307  0.79167615     0.11200
H650        H  0.13056005  0.93694035  0.79453981     0.11200
H651        H  0.12900271  0.93800759  0.70755776     0.11200
H652        H  0.09419244  0.78507530  0.70559347     0.11200
C653        C  0.22301317  0.88302939  0.89745768    -0.14900
C654        C  0.19615525  0.87442555  0.85390485     0.07200
C655        C  0.22412018  0.87361570  0.81092413    -0.14900
C656        C  0.27567656  0.87502556  0.81117360    -0.14900
C657        C  0.30356219  0.87684089  0.85454994     0.07200
C658        C  0.27605576  0.88553814  0.89763274    -0.14900
H659        H  0.20354134  0.88331209  0.93176712     0.11200
H660        H  0.20773267  0.86206146  0.77718305     0.11200
H661        H  0.29237883  0.86709191  0.77676157     0.11200
H662        H  0.29547814  0.88732650  0.93210591     0.11200
C663        C  0.11089161  0.67154116  0.77582549    -0.14900
C664        C  0.12822308  0.63062537  0.80197503     0.07200
C665        C  0.12876760  0.58594458  0.77569856    -0.14900
C666        C  0.12991931  0.58623544  0.72465208    -0.14900
C667        C  0.12966880  0.63117143  0.69927593     0.07200
C668        C  0.11131077  0.67170716  0.72562558    -0.14900
H669        H  0.09957015  0.70487837  0.79335236     0.11200
H670        H  0.13646674  0.55169250  0.79383843     0.11200
H671        H  0.13847818  0.55217679  0.70612810     0.11200
H672        H  0.09993813  0.70500780  0.70821495     0.11200
C673        C  0.23203428  0.59737935  0.82403565    -0.14900
C674        C  0.20243082  0.61508835  0.86268888     0.07200
C675        C  0.22788675  0.62237533  0.90731577    -0.14900
C676        C  0.28079769  0.62424635  0.90890105    -0.14900
C677        C  0.30829359  0.62161125  0.86530814     0.07200
C678        C  0.28399596  0.59910433  0.82594477    -0.14900
H679        H  0.21698499  0.58615394  0.79013449     0.11200
H680        H  0.20706093  0.63297834  0.93934436     0.11200
H681        H  0.29894813  0.63610207  0.94206053     0.11200
H682        H  0.30439187  0.58770356  0.79400634     0.11200
C683        C  0.18901811  0.71892390  0.85086174    -0.14900
C684        C  0.14904956  0.69141671  0.86888644     0.07200
C685        C  0.10671019  0.71853873  0.88551645    -0.14900
C686        C  0.10542409  0.77024857  0.88444035    -0.14900
C687        C  0.14645968  0.79750556  0.86706980     0.07200
C688        C  0.18801651  0.76967883  0.85039361    -0.14900
H689        H  0.22023792  0.70112036  0.83286874     0.11200
H690        H  0.07228401  0.70033107  0.89450882     0.11200
H691        H  0.07025161  0.78821774  0.89292272     0.11200
H692        H  0.21936205  0.78607553  0.83276557     0.11200
N693        N  0.94935577  0.09378349  0.05928533    -0.07700
N694        N  0.91972360  0.13055733  0.07210374    -0.59800
N695        N  0.56178935  0.05465672  0.09116868    -0.07400
N696        N  0.59378183  0.06461986  0.12624549    -0.61900
N697        N  0.56350043  0.08854799  0.05771088    -0.07000
N698        N  0.59686574  0.12202553  0.06945587    -0.59800
N699        N  0.94736525  0.05884358  0.09176387    -0.06600
N700        N  0.91581952  0.07087911  0.12677903    -0.62300
C701        C  0.89932108  0.11611821  0.11455479     0.94500
C702        C  0.61533863  0.10696333  0.11269000     0.94300
N703        N  0.55845641  0.40454326  0.05739058    -0.07900
N704        N  0.58966991  0.36882196  0.06983237    -0.60400
N705        N  0.94428629  0.44259755  0.09012544    -0.06000
N706        N  0.91194290  0.43245396  0.12454691    -0.61600
N707        N  0.94446583  0.40777829  0.05703951    -0.07900
N708        N  0.91260570  0.37324007  0.06862294    -0.60600
N709        N  0.55876613  0.43943927  0.09035211    -0.05600
N710        N  0.59030550  0.42832794  0.12541598    -0.61700
Mn711      Mn  0.00284690  0.99885399  0.09172124     1.18400
C712        C  0.60901996  0.38395185  0.11279923     0.96600
C713        C  0.89252660  0.38889770  0.11104052     0.97200
N714        N  0.56259512  0.08848295  0.44331690    -0.07900
N715        N  0.59549246  0.12209512  0.43151419    -0.64200
N716        N  0.94641338  0.05844670  0.40964785    -0.06700
N717        N  0.91434807  0.07037989  0.37490594    -0.64900
N718        N  0.94865377  0.09342163  0.44256209    -0.07400
N719        N  0.91882358  0.13014243  0.43029709    -0.64500
N720        N  0.56085202  0.05415720  0.40982940    -0.06300
N721        N  0.59245595  0.06376484  0.37473830    -0.65200
Mn722      Mn  0.00595226  0.09213193  0.50073394     1.10700
C723        C  0.61377645  0.10638099  0.38837709     0.97800
C724        C  0.89789230  0.11559652  0.38778372     0.97900
N725        N  0.94387503  0.40782020  0.44254283    -0.07400
N726        N  0.91189024  0.37337139  0.43034082    -0.62800
N727        N  0.55856832  0.43904421  0.40997475    -0.06700
N728        N  0.59047147  0.42803009  0.37528668    -0.59500
N729        N  0.55824590  0.40414595  0.44246921    -0.08100
N730        N  0.58956131  0.36841321  0.42993982    -0.62400
N731        N  0.94353746  0.44257909  0.40989059    -0.07000
N732        N  0.91101251  0.43249592  0.37518812    -0.59600
Mn733      Mn  0.50132076  0.40491724  0.99981833     1.20200
Mn734      Mn  0.50216511  0.49847185  0.40895249     1.10100
Cl735      Cl  0.50280672  0.99867604  0.00032174    -0.87500
C736        C  0.89147126  0.38905591  0.38804922     0.94800
C737        C  0.60944870  0.38372221  0.38762462     0.94600
C738        C  0.64786504  0.13551090  0.35558124    -0.04000
C739        C  0.64215889  0.35319578  0.35334500    -0.04000
C740        C  0.64375353  0.35474598  0.14595993    -0.04000
C741        C  0.64946086  0.13660569  0.14603777    -0.04000
C742        C  0.86038421  0.14626301  0.35900911    -0.04000
C743        C  0.86146639  0.14641766  0.14342176    -0.04000
C744        C  0.85740059  0.35859774  0.14195728    -0.04000
C745        C  0.85878873  0.35724087  0.35525258    -0.04000
C746        C  0.87229940  0.31358276  0.22374203    -0.14900
C747        C  0.87470843  0.35736832  0.19682799     0.07200
C748        C  0.88502097  0.40022105  0.22408969    -0.14900
C749        C  0.88580566  0.39992301  0.27511059    -0.14900
C750        C  0.87907903  0.35628142  0.30172980     0.07200
C751        C  0.87546557  0.31290206  0.27387954    -0.14900
H752        H  0.86292492  0.27901405  0.20745628     0.11200
H753        H  0.88496073  0.43562225  0.20711000     0.11200
H754        H  0.88508982  0.43518903  0.29275039     0.11200
H755        H  0.86765367  0.27806019  0.28993675     0.11200
C756        C  0.81657736  0.22630415  0.11726917    -0.14900
C757        C  0.86145862  0.19995122  0.12460754     0.07200
C758        C  0.90630332  0.22705192  0.12487093    -0.12900
C759        C  0.90527731  0.27838721  0.12270073    -0.14900
C760        C  0.85914692  0.30460746  0.12286642     0.07200
C761        C  0.81534158  0.27684112  0.11732735    -0.14900
H762        H  0.78064443  0.20942220  0.11856042     0.11200
H763        H  0.94195538  0.20881283  0.13118494     0.11200
H764        H  0.94021863  0.29762531  0.12773202     0.11200
H765        H  0.77857626  0.29253487  0.11923222     0.11200
C766        C  0.83824124  0.18052460  0.27641568    -0.14900
C767        C  0.87164871  0.15108792  0.30347816     0.07200
C768        C  0.90983089  0.12622929  0.27717923    -0.14900
C769        C  0.91023939  0.12653817  0.22570202    -0.14900
C770        C  0.87248472  0.15170639  0.19913963     0.07200
C771        C  0.83859595  0.18077246  0.22624661    -0.14900
H772        H  0.80855300  0.20095300  0.29420558     0.11200
H773        H  0.93848177  0.10520862  0.29560676     0.11200
H774        H  0.93905096  0.10558878  0.20740195     0.11200
H775        H  0.80886404  0.20110513  0.20856006     0.11200
C776        C  0.90715028  0.22626869  0.37469237    -0.14900
C777        C  0.86192971  0.19999354  0.37793514     0.07200
C778        C  0.81828991  0.22721827  0.38902075    -0.14900
C779        C  0.81790909  0.27794417  0.38806331    -0.14900
C780        C  0.86108940  0.30411836  0.37564823     0.07200
C781        C  0.90690954  0.27756811  0.37467730    -0.14900
H782        H  0.94203335  0.20718451  0.36696428     0.11200
H783        H  0.78229200  0.21092590  0.39291128     0.11200
H784        H  0.78192387  0.29515092  0.39267614     0.11200
H785        H  0.94160330  0.29615309  0.36693481     0.11200
C786        C  0.72907930  0.12360435  0.09447292    -0.14900
C787        C  0.70400134  0.11658416  0.13900303     0.07200
C788        C  0.73361549  0.09844474  0.17747168    -0.14900
C789        C  0.78559903  0.09867443  0.17534651    -0.14900
C790        C  0.80985427  0.12089478  0.13633064     0.07200
C791        C  0.78197746  0.12437732  0.09279656    -0.14900
H792        H  0.70809318  0.13468457  0.06265025     0.11200
H793        H  0.71861159  0.08814122  0.21143132     0.11200
H794        H  0.80616634  0.08706140  0.20714871     0.11200
H795        H  0.79994222  0.13647693  0.05995154     0.11200
C796        C  0.68763205  0.27204052  0.15605888    -0.14900
C797        C  0.64868186  0.29884685  0.13334181     0.07200
C798        C  0.60972229  0.27095180  0.11215269    -0.14900
C799        C  0.61073512  0.21934947  0.11272179    -0.14900
C800        C  0.65100270  0.19278252  0.13407653     0.07200
C801        C  0.68878423  0.22099191  0.15634764    -0.14900
H802        H  0.71564841  0.29071428  0.17755460     0.11200
H803        H  0.57547107  0.28811790  0.09975037     0.11200
H804        H  0.57710500  0.20128100  0.10078310     0.11200
H805        H  0.71775799  0.20342094  0.17780531     0.11200
C806        C  0.72278815  0.37280257  0.09524184    -0.14900
C807        C  0.69713648  0.37699887  0.13996855     0.07200
C808        C  0.72503414  0.39640419  0.17886377    -0.14900
C809        C  0.77688309  0.39874459  0.17720679    -0.14900
C810        C  0.80347220  0.38095438  0.13695771     0.07200
C811        C  0.77557806  0.37683572  0.09334704    -0.14900
H812        H  0.70287812  0.36107966  0.06300341     0.11200
H813        H  0.70913151  0.40711102  0.21258371     0.11200
H814        H  0.79511271  0.41157339  0.20941070     0.11200
H815        H  0.79447105  0.36734687  0.05988940     0.11200
C816        C  0.60252923  0.31786726  0.27447316    -0.14900
C817        C  0.61877791  0.35847152  0.30143347     0.07200
C818        C  0.62088732  0.40334306  0.27601052    -0.14900
C819        C  0.62100975  0.40373074  0.22514092    -0.14900
C820        C  0.62231252  0.35914180  0.19886324     0.07200
C821        C  0.60429384  0.31819049  0.22407984    -0.14900
H822        H  0.59212473  0.28446236  0.29167770     0.11200
H823        H  0.63056344  0.43693962  0.29454245     0.11200
H824        H  0.62899916  0.43800935  0.20756051     0.11200
H825        H  0.59418779  0.28507720  0.20559469     0.11200
C826        C  0.72301788  0.38302935  0.39745634    -0.14900
C827        C  0.69615933  0.37442375  0.35390422     0.07200
C828        C  0.72412360  0.37361138  0.31092317    -0.14900
C829        C  0.77568007  0.37501930  0.31117205    -0.14900
C830        C  0.80356636  0.37683866  0.35454798     0.07200
C831        C  0.77606041  0.38553807  0.39763060    -0.14900
H832        H  0.70354651  0.38331375  0.43176605     0.11200
H833        H  0.70773499  0.36205589  0.27718275     0.11200
H834        H  0.79238173  0.36708130  0.27676068     0.11200
H835        H  0.79548322  0.38732843  0.43210355     0.11200
C836        C  0.61089141  0.17154051  0.27582800    -0.14900
C837        C  0.62822529  0.13062465  0.30197619     0.07200
C838        C  0.62876939  0.08594426  0.27569901    -0.14900
C839        C  0.62991771  0.08623595  0.22465239    -0.14900
C840        C  0.62966558  0.13117249  0.19927708     0.07200
C841        C  0.61130773  0.17170741  0.22562801    -0.14900
H842        H  0.59956986  0.20487729  0.29335592     0.11200
H843        H  0.63647007  0.05169206  0.29383794     0.11200
H844        H  0.63847615  0.05217786  0.20612748     0.11200
H845        H  0.59993363  0.20500812  0.20821817     0.11200
C846        C  0.73203769  0.09737864  0.32403524    -0.14900
C847        C  0.70243462  0.11508694  0.36268897     0.07200
C848        C  0.72789092  0.12237346  0.40731582    -0.14900
C849        C  0.78080188  0.12424444  0.40890081    -0.14900
C850        C  0.80829758  0.12160956  0.36530781     0.07200
C851        C  0.78399953  0.09910327  0.32594416    -0.14900
H852        H  0.71698779  0.08615411  0.29013403     0.11200
H853        H  0.70706537  0.13297612  0.43934468     0.11200
H854        H  0.79895252  0.13609987  0.44206027     0.11200
H855        H  0.80439514  0.08770303  0.29400550     0.11200
C856        C  0.68902185  0.21892214  0.35086229    -0.14900
C857        C  0.64905361  0.19141505  0.36888764     0.07200
C858        C  0.60671462  0.21853715  0.38551840    -0.14900
C859        C  0.60542844  0.27024692  0.38444167    -0.14900
C860        C  0.64646376  0.29750379  0.36707035     0.07200
C861        C  0.68802039  0.26967695  0.35039392    -0.14900
H862        H  0.72024157  0.20111853  0.33286888     0.11200
H863        H  0.57228858  0.20032958  0.39451137     0.11200
H864        H  0.57025593  0.28821603  0.39292418     0.11200
H865        H  0.71936583  0.28607319  0.33276564     0.11200
N866        N  0.94935973  0.09378000  0.55928595    -0.07700
N867        N  0.91972752  0.13055370  0.57210461    -0.59800
N868        N  0.56179389  0.05465335  0.59116831    -0.07400
N869        N  0.59378673  0.06461656  0.62624480    -0.61900
N870        N  0.56350436  0.08854483  0.55771069    -0.07000
N871        N  0.59686953  0.12202257  0.56945541    -0.59800
N872        N  0.94736973  0.05884020  0.59176467    -0.06600
N873        N  0.91582435  0.07087571  0.62678021    -0.62300
C874        C  0.89932546  0.11611464  0.61455591     0.94500
C875        C  0.61534291  0.10696036  0.61268928     0.94300
N876        N  0.55845985  0.40453956  0.55738999    -0.07900
N877        N  0.58967333  0.36881820  0.56983161    -0.60400
N878        N  0.94429045  0.44259396  0.59012573    -0.06000
N879        N  0.91194742  0.43245022  0.62454745    -0.61600
N880        N  0.94446949  0.40777487  0.55703958    -0.07900
N881        N  0.91260957  0.37323657  0.56862325    -0.60600
N882        N  0.55877054  0.43943602  0.59035099    -0.05600
N883        N  0.59031059  0.42832508  0.62541425    -0.61700
Mn884      Mn  0.00285123  0.99885052  0.59172114     1.18400
C885        C  0.60902442  0.38394872  0.61279777     0.96600
C886        C  0.89253091  0.38889403  0.61104108     0.97200
N887        N  0.56259089  0.08848561  0.94331632    -0.07900
N888        N  0.59548874  0.12209727  0.93151346    -0.64200
N889        N  0.94640846  0.05844879  0.90964906    -0.06700
N890        N  0.91434238  0.07038137  0.87490776    -0.64900
N891        N  0.94864975  0.09342433  0.94256258    -0.07400
N892        N  0.91881958  0.13014510  0.93029757    -0.64500
N893        N  0.56084684  0.05416008  0.90982858    -0.06300
N894        N  0.59245055  0.06376741  0.87473725    -0.65200
Mn895      Mn  0.00594849  0.09213505  0.00073378     1.10700
C896        C  0.61377206  0.10638305  0.88837611     0.97800
C897        C  0.89788741  0.11559835  0.88778494     0.97900
N898        N  0.94387137  0.40782264  0.94254341    -0.07400
N899        N  0.91188702  0.37337339  0.93034158    -0.62800
N900        N  0.55856360  0.43904655  0.90997341    -0.06700
N901        N  0.59046582  0.42803175  0.87528458    -0.59500
N902        N  0.55824215  0.40414887  0.94246855    -0.08100
N903        N  0.58955723  0.36841590  0.92993891    -0.62400
N904        N  0.94353283  0.44258169  0.90989137    -0.07000
N905        N  0.91100757  0.43249823  0.87518926    -0.59600
Mn906      Mn  0.50132416  0.40491407  0.49981820     1.20200
Mn907      Mn  0.50216012  0.49847446  0.90895238     1.10100
Cl908      Cl  0.50281059  0.99867293  0.50032179    -0.87500
C909        C  0.89146743  0.38905769  0.88805017     0.94800
C910        C  0.60944357  0.38372411  0.88762294     0.94600
C911        C  0.64786136  0.13551235  0.85558039    -0.04000
C912        C  0.64215483  0.35319743  0.85334411    -0.04000
C913        C  0.64375790  0.35474317  0.64595844    -0.04000
C914        C  0.64946498  0.13660306  0.64603677    -0.04000
C915        C  0.86038016  0.14626440  0.85900949    -0.04000
C916        C  0.86146998  0.14641391  0.64342220    -0.04000
C917        C  0.85740403  0.35859437  0.64195718    -0.04000
C918        C  0.85878442  0.35724241  0.85525410    -0.04000
C919        C  0.87229094  0.31358082  0.72374370    -0.14900
C920        C  0.87470915  0.35736503  0.69682865     0.07200
C921        C  0.88502487  0.40021730  0.72409008    -0.14900
C922        C  0.88580722  0.39992032  0.77511107    -0.14900
C923        C  0.87907431  0.35628029  0.80173106     0.07200
C924        C  0.87545411  0.31290100  0.77388138    -0.14900
H925        H  0.86291187  0.27901335  0.70745797     0.11200
H926        H  0.88496960  0.43561809  0.70711011     0.11200
H927        H  0.88509556  0.43518681  0.79274986     0.11200
H928        H  0.86763559  0.27806097  0.78993920     0.11200
C929        C  0.81658276  0.22630028  0.61726498    -0.14900
C930        C  0.86146331  0.19994746  0.62460778     0.07200
C931        C  0.90630798  0.22704826  0.62487506    -0.12900
C932        C  0.90528220  0.27838361  0.62270556    -0.14900
C933        C  0.85915177  0.30460380  0.62286685     0.07200
C934        C  0.81534704  0.27683732  0.61732312    -0.14900
H935        H  0.78064965  0.20941849  0.61855254     0.11200
H936        H  0.94195950  0.20880906  0.63119185     0.11200
H937        H  0.94022295  0.29762178  0.62773991     0.11200
H938        H  0.77858132  0.29253072  0.61922438     0.11200
C939        C  0.83823989  0.18052331  0.77641447    -0.14900
C940        C  0.87164628  0.15108730  0.80347868     0.07200
C941        C  0.90982915  0.12622740  0.77718153    -0.14900
C942        C  0.91023946  0.12653483  0.72570434    -0.14900
C943        C  0.87248646  0.15170331  0.69914024     0.07200
C944        C  0.83859675  0.18077008  0.72624545    -0.14900
H945        H  0.80855116  0.20095226  0.79420298     0.11200
H946        H  0.93847930  0.10520717  0.79561027     0.11200
H947        H  0.93905120  0.10558438  0.70740559     0.11200
H948        H  0.80886570  0.20110259  0.70855727     0.11200
C949        C  0.90714595  0.22627037  0.87469173    -0.14900
C950        C  0.86192541  0.19999528  0.87793446     0.07200
C951        C  0.81828562  0.22721984  0.88902072    -0.14900
C952        C  0.81790495  0.27794579  0.88806486    -0.14900
C953        C  0.86108526  0.30412019  0.87565033     0.07200
C954        C  0.90690529  0.27756977  0.87467777    -0.14900
H955        H  0.94202887  0.20718622  0.86696322     0.11200
H956        H  0.78228781  0.21092759  0.89291103     0.11200
H957        H  0.78191972  0.29515229  0.89267788     0.11200
H958        H  0.94159902  0.29615484  0.86693509     0.11200
C959        C  0.72908351  0.12359968  0.59447258    -0.14900
C960        C  0.70400517  0.11658061  0.63900271     0.07200
C961        C  0.73361880  0.09844147  0.67747177    -0.14900
C962        C  0.78560235  0.09867060  0.67534663    -0.14900
C963        C  0.80985799  0.12089077  0.63633075     0.07200
C964        C  0.78198166  0.12437234  0.59279640    -0.14900
H965        H  0.70809764  0.13467954  0.56264955     0.11200
H966        H  0.71861427  0.08813854  0.71143150     0.11200
H967        H  0.80616947  0.08705757  0.70714910     0.11200
H968        H  0.79994670  0.13647126  0.55995128     0.11200
C969        C  0.68763740  0.27203774  0.65605531    -0.14900
C970        C  0.64868595  0.29884403  0.63334022     0.07200
C971        C  0.60972534  0.27094893  0.61215292    -0.14900
C972        C  0.61073848  0.21934659  0.61272176    -0.14900
C973        C  0.65100732  0.19277961  0.63407426     0.07200
C974        C  0.68878992  0.22098910  0.65634357    -0.14900
H975        H  0.71565483  0.29071144  0.67754971     0.11200
H976        H  0.57547338  0.28811500  0.59975259     0.11200
H977        H  0.57710771  0.20127785  0.60078485     0.11200
H978        H  0.71776492  0.20341819  0.67779984     0.11200
C979        C  0.72279239  0.37279880  0.59524008    -0.14900
C980        C  0.69714067  0.37699611  0.63996669     0.07200
C981        C  0.72503797  0.39640290  0.67886139    -0.14900
C982        C  0.77688692  0.39874361  0.67720419    -0.14900
C983        C  0.80347598  0.38095117  0.63695605     0.07200
C984        C  0.77558226  0.37683193  0.59334529    -0.14900
H985        H  0.70288238  0.36107514  0.56300187     0.11200
H986        H  0.70913498  0.40711109  0.71258074     0.11200
H987        H  0.79511689  0.41157457  0.70940711     0.11200
H988        H  0.79447545  0.36734230  0.55988793     0.11200
C989        C  0.60252863  0.31786713  0.77447147    -0.14900
C990        C  0.61877540  0.35847218  0.80143178     0.07200
C991        C  0.62088573  0.40334311  0.77600801    -0.14900
C992        C  0.62101249  0.40372935  0.72513835    -0.14900
C993        C  0.62231674  0.35913971  0.69886163     0.07200
C994        C  0.60429720  0.31818881  0.72407822    -0.14900
H995        H  0.59212268  0.28446296  0.79167612     0.11200
H996        H  0.63055997  0.43694023  0.79453987     0.11200
H997        H  0.62900264  0.43800756  0.70755779     0.11200
H998        H  0.59419242  0.28507528  0.70559351     0.11200
C999        C  0.72301315  0.38302949  0.89745765    -0.14900
C1000       C  0.69615527  0.37442553  0.85390483     0.07200
C1001       C  0.72412025  0.37361559  0.81092415    -0.14900
C1002       C  0.77567659  0.37502568  0.81117364    -0.14900
C1003       C  0.80356223  0.37684098  0.85454996     0.07200
C1004       C  0.77605575  0.38553826  0.89763275    -0.14900
H1005       H  0.70354127  0.38331221  0.93176708     0.11200
H1006       H  0.70773271  0.36206128  0.77718300     0.11200
H1007       H  0.79237891  0.36709210  0.77676152     0.11200
H1008       H  0.79547808  0.38732665  0.93210595     0.11200
C1009       C  0.61089173  0.17154104  0.77582549    -0.14900
C1010       C  0.62822306  0.13062525  0.80197502     0.07200
C1011       C  0.62876753  0.08594438  0.77569857    -0.14900
C1012       C  0.62991928  0.08623533  0.72465207    -0.14900
C1013       C  0.62966877  0.13117132  0.69927592     0.07200
C1014       C  0.61131078  0.17170706  0.72562558    -0.14900
H1015       H  0.59957031  0.20487829  0.79335237     0.11200
H1016       H  0.63646666  0.05169237  0.79383837     0.11200
H1017       H  0.63847822  0.05217666  0.70612808     0.11200
H1018       H  0.59993816  0.20500765  0.70821499     0.11200
C1019       C  0.73203419  0.09737928  0.82403567    -0.14900
C1020       C  0.70243077  0.11508836  0.86268889     0.07200
C1021       C  0.72788668  0.12237547  0.90731575    -0.14900
C1022       C  0.78079762  0.12424643  0.90890108    -0.14900
C1023       C  0.80829352  0.12161125  0.86530816     0.07200
C1024       C  0.78399586  0.09910436  0.82594477    -0.14900
H1025       H  0.71698491  0.08615385  0.79013456     0.11200
H1026       H  0.70706084  0.13297854  0.93934433     0.11200
H1027       H  0.79894804  0.13610216  0.94206051     0.11200
H1028       H  0.80439172  0.08770364  0.79400628     0.11200
C1029       C  0.68901816  0.21892390  0.85086173    -0.14900
C1030       C  0.64904961  0.19141670  0.86888640     0.07200
C1031       C  0.60671029  0.21853879  0.88551642    -0.14900
C1032       C  0.60542433  0.27024859  0.88444035    -0.14900
C1033       C  0.64645986  0.29750556  0.86706983     0.07200
C1034       C  0.68801672  0.26967883  0.85039361    -0.14900
H1035       H  0.72023802  0.20112029  0.83286864     0.11200
H1036       H  0.57228404  0.20033118  0.89450874     0.11200
H1037       H  0.57025177  0.28821789  0.89292273     0.11200
H1038       H  0.71936222  0.28607545  0.83276563     0.11200
N1039       N  0.94935578  0.59378359  0.05928529    -0.07700
N1040       N  0.91972361  0.63055739  0.07210377    -0.59800
N1041       N  0.56178942  0.55465668  0.09116866    -0.07400
N1042       N  0.59378187  0.56461984  0.12624548    -0.61900
N1043       N  0.56350047  0.58854797  0.05771087    -0.07000
N1044       N  0.59686575  0.62202554  0.06945588    -0.59800
N1045       N  0.94736528  0.55884364  0.09176382    -0.06600
N1046       N  0.91581963  0.57087915  0.12677903    -0.62300
C1047       C  0.89932113  0.61611825  0.11455483     0.94500
C1048       C  0.61533860  0.60696337  0.11269002     0.94300
N1049       N  0.55845644  0.90454338  0.05739056    -0.07900
N1050       N  0.58966985  0.86882202  0.06983242    -0.60400
N1051       N  0.94428631  0.94259755  0.09012547    -0.06000
N1052       N  0.91194286  0.93245405  0.12454689    -0.61600
N1053       N  0.94446582  0.90777829  0.05703953    -0.07900
N1054       N  0.91260562  0.87324013  0.06862294    -0.60600
N1055       N  0.55876624  0.93943940  0.09035206    -0.05600
N1056       N  0.59030558  0.92832807  0.12541595    -0.61700
Mn1057     Mn  0.00284692  0.49885403  0.09172124     1.18400
C1058       C  0.60901995  0.88395193  0.11279924     0.96600
C1059       C  0.89252653  0.88889779  0.11104051     0.97200
N1060       N  0.56259510  0.58848294  0.44331690    -0.07900
N1061       N  0.59549241  0.62209516  0.43151416    -0.64200
N1062       N  0.94641332  0.55844663  0.40964782    -0.06700
N1063       N  0.91434807  0.57037992  0.37490589    -0.64900
N1064       N  0.94865370  0.59342151  0.44256211    -0.07400
N1065       N  0.91882356  0.63014236  0.43029715    -0.64500
N1066       N  0.56085201  0.55415721  0.40982940    -0.06300
N1067       N  0.59245596  0.56376484  0.37473831    -0.65200
Mn1068     Mn  0.00595223  0.59213184  0.50073394     1.10700
C1069       C  0.61377643  0.60638100  0.38837710     0.97800
C1070       C  0.89789233  0.61559654  0.38778373     0.97900
N1071       N  0.94387511  0.90782010  0.44254278    -0.07400
N1072       N  0.91189024  0.87337136  0.43034077    -0.62800
N1073       N  0.55856825  0.93904418  0.40997478    -0.06700
N1074       N  0.59047146  0.92803015  0.37528673    -0.59500
N1075       N  0.55824582  0.90414586  0.44246917    -0.08100
N1076       N  0.58956129  0.86841318  0.42993976    -0.62400
N1077       N  0.94353748  0.94257908  0.40989064    -0.07000
N1078       N  0.91101245  0.93249600  0.37518820    -0.59600
Mn1079     Mn  0.50132073  0.90491728  0.99981834     1.20200
Mn1080     Mn  0.50216507  0.99847190  0.40895252     1.10100
Cl1081     Cl  0.50280674  0.49867612  0.00032174    -0.87500
C1082       C  0.89147121  0.88905598  0.38804922     0.94800
C1083       C  0.60944871  0.88372225  0.38762461     0.94600
C1084       C  0.64786502  0.63551088  0.35558124    -0.04000
C1085       C  0.64215890  0.85319577  0.35334500    -0.04000
C1086       C  0.64375349  0.85474601  0.14595994    -0.04000
C1087       C  0.64946082  0.63660575  0.14603777    -0.04000
C1088       C  0.86038420  0.64626300  0.35900914    -0.04000
C1089       C  0.86146640  0.64641767  0.14342178    -0.04000
C1090       C  0.85740059  0.85859779  0.14195728    -0.04000
C1091       C  0.85878871  0.85724094  0.35525256    -0.04000
C1092       C  0.87229938  0.81358275  0.22374203    -0.14900
C1093       C  0.87470842  0.85736832  0.19682798     0.07200
C1094       C  0.88502093  0.90022105  0.22408970    -0.14900
C1095       C  0.88580564  0.89992296  0.27511057    -0.14900
C1096       C  0.87907900  0.85628143  0.30172980     0.07200
C1097       C  0.87546552  0.81290209  0.27387952    -0.14900
H1098       H  0.86292492  0.77901404  0.20745627     0.11200
H1099       H  0.88496066  0.93562222  0.20711003     0.11200
H1100       H  0.88508981  0.93518906  0.29275046     0.11200
H1101       H  0.86765359  0.77806012  0.28993682     0.11200
C1102       C  0.81657739  0.72630424  0.11726918    -0.14900
C1103       C  0.86145859  0.69995124  0.12460756     0.07200
C1104       C  0.90630330  0.72705188  0.12487092    -0.12900
C1105       C  0.90527735  0.77838717  0.12270074    -0.14900
C1106       C  0.85914699  0.80460751  0.12286642     0.07200
C1107       C  0.81534163  0.77684119  0.11732735    -0.14900
H1108       H  0.78064436  0.70942229  0.11856039     0.11200
H1109       H  0.94195533  0.70881268  0.13118492     0.11200
H1110       H  0.94021879  0.79762520  0.12773202     0.11200
H1111       H  0.77857634  0.79253493  0.11923231     0.11200
C1112       C  0.83824121  0.68052452  0.27641569    -0.14900
C1113       C  0.87164869  0.65108784  0.30347818     0.07200
C1114       C  0.90983087  0.62622916  0.27717924    -0.14900
C1115       C  0.91023934  0.62653810  0.22570204    -0.14900
C1116       C  0.87248474  0.65170637  0.19913964     0.07200
C1117       C  0.83859596  0.68077236  0.22624664    -0.14900
H1118       H  0.80855305  0.70095296  0.29420557     0.11200
H1119       H  0.93848176  0.60520856  0.29560673     0.11200
H1120       H  0.93905097  0.60558870  0.20740192     0.11200
H1121       H  0.80886402  0.70110511  0.20856003     0.11200
C1122       C  0.90715025  0.72626871  0.37469236    -0.14900
C1123       C  0.86192971  0.69999356  0.37793513     0.07200
C1124       C  0.81828989  0.72721828  0.38902076    -0.14900
C1125       C  0.81790916  0.77794421  0.38806333    -0.14900
C1126       C  0.86108942  0.80411842  0.37564823     0.07200
C1127       C  0.90690955  0.77756814  0.37467729    -0.14900
H1128       H  0.94203331  0.70718449  0.36696427     0.11200
H1129       H  0.78229208  0.71092593  0.39291127     0.11200
H1130       H  0.78192388  0.79515100  0.39267616     0.11200
H1131       H  0.94160332  0.79615313  0.36693477     0.11200
C1132       C  0.72907928  0.62360444  0.09447294    -0.14900
C1133       C  0.70400130  0.61658419  0.13900304     0.07200
C1134       C  0.73361548  0.59844480  0.17747167    -0.14900
C1135       C  0.78559903  0.59867440  0.17534649    -0.14900
C1136       C  0.80985426  0.62089481  0.13633064     0.07200
C1137       C  0.78197744  0.62437733  0.09279659    -0.14900
H1138       H  0.70809318  0.63468478  0.06265031     0.11200
H1139       H  0.71861154  0.58814127  0.21143137     0.11200
H1140       H  0.80616636  0.58706129  0.20714864     0.11200
H1141       H  0.79994224  0.63647690  0.05995151     0.11200
C1142       C  0.68763202  0.77204058  0.15605887    -0.14900
C1143       C  0.64868183  0.79884693  0.13334181     0.07200
C1144       C  0.60972226  0.77095192  0.11215270    -0.14900
C1145       C  0.61073510  0.71934960  0.11272179    -0.14900
C1146       C  0.65100265  0.69278259  0.13407651     0.07200
C1147       C  0.68878418  0.72099197  0.15634762    -0.14900
H1148       H  0.71564838  0.79071433  0.17755462     0.11200
H1149       H  0.57547102  0.78811803  0.09975041     0.11200
H1150       H  0.57710493  0.70128113  0.10078303     0.11200
H1151       H  0.71775795  0.70342096  0.17780528     0.11200
C1152       C  0.72278812  0.87280245  0.09524183    -0.14900
C1153       C  0.69713646  0.87699881  0.13996855     0.07200
C1154       C  0.72503412  0.89640406  0.17886376    -0.14900
C1155       C  0.77688305  0.89874449  0.17720680    -0.14900
C1156       C  0.80347219  0.88095440  0.13695769     0.07200
C1157       C  0.77557804  0.87683568  0.09334701    -0.14900
H1158       H  0.70287807  0.86107962  0.06300341     0.11200
H1159       H  0.70913143  0.90711098  0.21258369     0.11200
H1160       H  0.79511265  0.91157330  0.20941073     0.11200
H1161       H  0.79447101  0.86734687  0.05988939     0.11200
C1162       C  0.60252920  0.81786713  0.27447320    -0.14900
C1163       C  0.61877795  0.85847145  0.30143346     0.07200
C1164       C  0.62088745  0.90334294  0.27601051    -0.14900
C1165       C  0.62100975  0.90373074  0.22514091    -0.14900
C1166       C  0.62231246  0.85914178  0.19886325     0.07200
C1167       C  0.60429381  0.81819040  0.22407981    -0.14900
H1168       H  0.59212466  0.78446241  0.29167767     0.11200
H1169       H  0.63056371  0.93693952  0.29454250     0.11200
H1170       H  0.62899907  0.93800927  0.20756059     0.11200
H1171       H  0.59418773  0.78507723  0.20559471     0.11200
C1172       C  0.72301786  0.88302924  0.39745636    -0.14900
C1173       C  0.69615933  0.87442373  0.35390422     0.07200
C1174       C  0.72412359  0.87361151  0.31092317    -0.14900
C1175       C  0.77568005  0.87501947  0.31117206    -0.14900
C1176       C  0.80356634  0.87683875  0.35454798     0.07200
C1177       C  0.77606037  0.88553802  0.39763062    -0.14900
H1178       H  0.70354646  0.88331364  0.43176605     0.11200
H1179       H  0.70773501  0.86205604  0.27718272     0.11200
H1180       H  0.79238172  0.86708146  0.27676067     0.11200
H1181       H  0.79548319  0.88732837  0.43210357     0.11200
C1182       C  0.61089142  0.67154059  0.27582805    -0.14900
C1183       C  0.62822527  0.63062464  0.30197619     0.07200
C1184       C  0.62876935  0.58594425  0.27569899    -0.14900
C1185       C  0.62991764  0.58623604  0.22465241    -0.14900
C1186       C  0.62966553  0.63117254  0.19927709     0.07200
C1187       C  0.61130773  0.67170746  0.22562802    -0.14900
H1188       H  0.59957002  0.70487722  0.29335586     0.11200
H1189       H  0.63647002  0.55169204  0.29383787     0.11200
H1190       H  0.63847613  0.55217780  0.20612742     0.11200
H1191       H  0.59993367  0.70500816  0.20821821     0.11200
C1192       C  0.73203769  0.59737878  0.32403522    -0.14900
C1193       C  0.70243461  0.61508694  0.36268897     0.07200
C1194       C  0.72789091  0.62237335  0.40731584    -0.14900
C1195       C  0.78080187  0.62424434  0.40890083    -0.14900
C1196       C  0.80829759  0.62160954  0.36530783     0.07200
C1197       C  0.78399947  0.59910338  0.32594414    -0.14900
H1198       H  0.71698772  0.58615423  0.29013398     0.11200
H1199       H  0.70706534  0.63297594  0.43934472     0.11200
H1200       H  0.79895250  0.63609976  0.44206034     0.11200
H1201       H  0.80439506  0.58770310  0.29400539     0.11200
C1202       C  0.68902186  0.71892207  0.35086227    -0.14900
C1203       C  0.64905359  0.69141502  0.36888766     0.07200
C1204       C  0.60671463  0.71853716  0.38551838    -0.14900
C1205       C  0.60542846  0.77024695  0.38444168    -0.14900
C1206       C  0.64646382  0.79750379  0.36707038     0.07200
C1207       C  0.68802038  0.76967689  0.35039392    -0.14900
H1208       H  0.72024149  0.70111845  0.33286888     0.11200
H1209       H  0.57228854  0.70032964  0.39451131     0.11200
H1210       H  0.57025603  0.78821607  0.39292409     0.11200
H1211       H  0.71936590  0.78607315  0.33276557     0.11200
N1212       N  0.94935966  0.59377992  0.55928592    -0.07700
N1213       N  0.91972749  0.63055365  0.57210455    -0.59800
N1214       N  0.56179389  0.55465335  0.59116832    -0.07400
N1215       N  0.59378671  0.56461662  0.62624483    -0.61900
N1216       N  0.56350435  0.58854478  0.55771068    -0.07000
N1217       N  0.59686947  0.62202258  0.56945541    -0.59800
N1218       N  0.94736967  0.55884019  0.59176471    -0.06600
N1219       N  0.91582435  0.57087577  0.62678028    -0.62300
C1220       C  0.89932548  0.61611470  0.61455592     0.94500
C1221       C  0.61534289  0.60696040  0.61268928     0.94300
N1222       N  0.55845981  0.90453955  0.55738999    -0.07900
N1223       N  0.58967330  0.86881819  0.56983165    -0.60400
N1224       N  0.94429057  0.94259395  0.59012574    -0.06000
N1225       N  0.91194751  0.93245026  0.62454747    -0.61600
N1226       N  0.94446958  0.90777489  0.55703957    -0.07900
N1227       N  0.91260959  0.87323664  0.56862322    -0.60600
N1228       N  0.55877049  0.93943601  0.59035097    -0.05600
N1229       N  0.59031060  0.92832511  0.62541423    -0.61700
Mn1230     Mn  0.00285121  0.49885055  0.59172115     1.18400
C1231       C  0.60902441  0.88394875  0.61279776     0.96600
C1232       C  0.89253101  0.88889408  0.61104110     0.97200
N1233       N  0.56259091  0.58848555  0.94331631    -0.07900
N1234       N  0.59548874  0.62209723  0.93151349    -0.64200
N1235       N  0.94640849  0.55844877  0.90964906    -0.06700
N1236       N  0.91434237  0.57038129  0.87490775    -0.64900
N1237       N  0.94864973  0.59342429  0.94256258    -0.07400
N1238       N  0.91881950  0.63014503  0.93029757    -0.64500
N1239       N  0.56084689  0.55416004  0.90982856    -0.06300
N1240       N  0.59245066  0.56376737  0.87473725    -0.65200
Mn1241     Mn  0.00594849  0.59213514  0.00073378     1.10700
C1242       C  0.61377209  0.60638303  0.88837613     0.97800
C1243       C  0.89788737  0.61559827  0.88778493     0.97900
N1244       N  0.94387132  0.90782264  0.94254344    -0.07400
N1245       N  0.91188700  0.87337333  0.93034161    -0.62800
N1246       N  0.55856357  0.93904647  0.90997342    -0.06700
N1247       N  0.59046582  0.92803172  0.87528461    -0.59500
N1248       N  0.55824209  0.90414877  0.94246854    -0.08100
N1249       N  0.58955717  0.86841580  0.92993888    -0.62400
N1250       N  0.94353279  0.94258162  0.90989136    -0.07000
N1251       N  0.91100755  0.93249813  0.87518923    -0.59600
Mn1252     Mn  0.50132412  0.90491396  0.49981819     1.20200
Mn1253     Mn  0.50216008  0.99847441  0.90895239     1.10100
Cl1254     Cl  0.50281062  0.49867299  0.50032179    -0.87500
C1255       C  0.89146742  0.88905762  0.88805019     0.94800
C1256       C  0.60944354  0.88372405  0.88762292     0.94600
C1257       C  0.64786134  0.63551238  0.85558041    -0.04000
C1258       C  0.64215486  0.85319747  0.85334410    -0.04000
C1259       C  0.64375788  0.85474316  0.64595844    -0.04000
C1260       C  0.64946500  0.63660309  0.64603678    -0.04000
C1261       C  0.86038015  0.64626441  0.85900948    -0.04000
C1262       C  0.86146995  0.64641398  0.64342219    -0.04000
C1263       C  0.85740407  0.85859444  0.64195717    -0.04000
C1264       C  0.85878443  0.85724236  0.85525411    -0.04000
C1265       C  0.87229091  0.81358089  0.72374371    -0.14900
C1266       C  0.87470912  0.85736506  0.69682864     0.07200
C1267       C  0.88502485  0.90021727  0.72409012    -0.14900
C1268       C  0.88580721  0.89992026  0.77511106    -0.14900
C1269       C  0.87907431  0.85628027  0.80173107     0.07200
C1270       C  0.87545410  0.81290100  0.77388136    -0.14900
H1271       H  0.86291180  0.77901333  0.70745790     0.11200
H1272       H  0.88496961  0.93561814  0.70711006     0.11200
H1273       H  0.88509555  0.93518685  0.79274991     0.11200
H1274       H  0.86763560  0.77806099  0.78993918     0.11200
C1275       C  0.81658275  0.72630038  0.61726497    -0.14900
C1276       C  0.86146328  0.69994753  0.62460773     0.07200
C1277       C  0.90630795  0.72704830  0.62487505    -0.12900
C1278       C  0.90528221  0.77838363  0.62270556    -0.14900
C1279       C  0.85915182  0.80460389  0.62286683     0.07200
C1280       C  0.81534711  0.77683742  0.61732310    -0.14900
H1281       H  0.78064965  0.70941857  0.61855248     0.11200
H1282       H  0.94195947  0.70880904  0.63119186     0.11200
H1283       H  0.94022304  0.79762178  0.62773993     0.11200
H1284       H  0.77858134  0.79253093  0.61922436     0.11200
C1285       C  0.83823985  0.68052350  0.77641451    -0.14900
C1286       C  0.87164625  0.65108741  0.80347867     0.07200
C1287       C  0.90982910  0.62622756  0.77718150    -0.14900
C1288       C  0.91023943  0.62653503  0.72570432    -0.14900
C1289       C  0.87248641  0.65170348  0.69914024     0.07200
C1290       C  0.83859669  0.68077030  0.72624544    -0.14900
H1291       H  0.80855121  0.70095244  0.79420299     0.11200
H1292       H  0.93847925  0.60520724  0.79561026     0.11200
H1293       H  0.93905115  0.60558455  0.70740558     0.11200
H1294       H  0.80886573  0.70110281  0.70855732     0.11200
C1295       C  0.90714598  0.72627043  0.87469173    -0.14900
C1296       C  0.86192546  0.69999528  0.87793449     0.07200
C1297       C  0.81828565  0.72721981  0.88902073    -0.14900
C1298       C  0.81790505  0.77794574  0.88806488    -0.14900
C1299       C  0.86108527  0.80412019  0.87565033     0.07200
C1300       C  0.90690531  0.77756983  0.87467777    -0.14900
H1301       H  0.94202891  0.70718631  0.86696322     0.11200
H1302       H  0.78228793  0.71092758  0.89291103     0.11200
H1303       H  0.78191969  0.79515226  0.89267795     0.11200
H1304       H  0.94159901  0.79615493  0.86693509     0.11200
C1305       C  0.72908351  0.62359979  0.59447261    -0.14900
C1306       C  0.70400522  0.61658066  0.63900275     0.07200
C1307       C  0.73361885  0.59844138  0.67747175    -0.14900
C1308       C  0.78560244  0.59867048  0.67534664    -0.14900
C1309       C  0.80985802  0.62089073  0.63633073     0.07200
C1310       C  0.78198166  0.62437230  0.59279642    -0.14900
H1311       H  0.70809765  0.63467971  0.56264964     0.11200
H1312       H  0.71861432  0.58813837  0.71143146     0.11200
H1313       H  0.80616953  0.58705751  0.70714902     0.11200
H1314       H  0.79994669  0.63647119  0.55995125     0.11200
C1315       C  0.68763740  0.77203773  0.65605531    -0.14900
C1316       C  0.64868597  0.79884400  0.63334022     0.07200
C1317       C  0.60972544  0.77094885  0.61215287    -0.14900
C1318       C  0.61073857  0.71934654  0.61272176    -0.14900
C1319       C  0.65100741  0.69277960  0.63407426     0.07200
C1320       C  0.68878997  0.72098911  0.65634359    -0.14900
H1321       H  0.71565486  0.79071153  0.67754975     0.11200
H1322       H  0.57547346  0.78811492  0.59975245     0.11200
H1323       H  0.57710779  0.70127779  0.60078496     0.11200
H1324       H  0.71776498  0.70341820  0.67779990     0.11200
C1325       C  0.72279237  0.87279890  0.59524008    -0.14900
C1326       C  0.69714065  0.87699606  0.63996670     0.07200
C1327       C  0.72503796  0.89640275  0.67886142    -0.14900
C1328       C  0.77688686  0.89874353  0.67720418    -0.14900
C1329       C  0.80347600  0.88095127  0.63695603     0.07200
C1330       C  0.77558224  0.87683208  0.59334527    -0.14900
H1331       H  0.70288235  0.86107524  0.56300183     0.11200
H1332       H  0.70913493  0.90711094  0.71258076     0.11200
H1333       H  0.79511686  0.91157453  0.70940721     0.11200
H1334       H  0.79447542  0.86734244  0.55988789     0.11200
C1335       C  0.60252864  0.81786732  0.77447146    -0.14900
C1336       C  0.61877549  0.85847230  0.80143175     0.07200
C1337       C  0.62088577  0.90334328  0.77600801    -0.14900
C1338       C  0.62101247  0.90372950  0.72513831    -0.14900
C1339       C  0.62231671  0.85913978  0.69886163     0.07200
C1340       C  0.60429717  0.81818897  0.72407826    -0.14900
H1341       H  0.59212264  0.78446309  0.79167621     0.11200
H1342       H  0.63055995  0.93694036  0.79453981     0.11200
H1343       H  0.62900261  0.93800759  0.70755777     0.11200
H1344       H  0.59419237  0.78507529  0.70559351     0.11200
C1345       C  0.72301313  0.88302940  0.89745768    -0.14900
C1346       C  0.69615529  0.87442558  0.85390482     0.07200
C1347       C  0.72412028  0.87361571  0.81092415    -0.14900
C1348       C  0.77567664  0.87502558  0.81117363    -0.14900
C1349       C  0.80356224  0.87684089  0.85454998     0.07200
C1350       C  0.77605574  0.88553813  0.89763277    -0.14900
H1351       H  0.70354122  0.88331208  0.93176703     0.11200
H1352       H  0.70773277  0.86206149  0.77718299     0.11200
H1353       H  0.79237889  0.86709196  0.77676158     0.11200
H1354       H  0.79547806  0.88732649  0.93210597     0.11200
C1355       C  0.61089171  0.67154119  0.77582547    -0.14900
C1356       C  0.62822303  0.63062538  0.80197503     0.07200
C1357       C  0.62876748  0.58594457  0.77569855    -0.14900
C1358       C  0.62991926  0.58623545  0.72465208    -0.14900
C1359       C  0.62966877  0.63117142  0.69927592     0.07200
C1360       C  0.61131071  0.67170715  0.72562555    -0.14900
H1361       H  0.59957032  0.70487846  0.79335235     0.11200
H1362       H  0.63646662  0.55169249  0.79383841     0.11200
H1363       H  0.63847819  0.55217678  0.70612810     0.11200
H1364       H  0.59993803  0.70500775  0.70821490     0.11200
C1365       C  0.73203419  0.59737935  0.82403565    -0.14900
C1366       C  0.70243075  0.61508835  0.86268887     0.07200
C1367       C  0.72788666  0.62237533  0.90731576    -0.14900
C1368       C  0.78079759  0.62424636  0.90890105    -0.14900
C1369       C  0.80829350  0.62161126  0.86530814     0.07200
C1370       C  0.78399587  0.59910434  0.82594477    -0.14900
H1371       H  0.71698487  0.58615395  0.79013448     0.11200
H1372       H  0.70706082  0.63297833  0.93934435     0.11200
H1373       H  0.79894802  0.63610208  0.94206053     0.11200
H1374       H  0.80439176  0.58770356  0.79400634     0.11200
C1375       C  0.68901812  0.71892389  0.85086175    -0.14900
C1376       C  0.64904959  0.69141671  0.86888644     0.07200
C1377       C  0.60671024  0.71853876  0.88551643    -0.14900
C1378       C  0.60542429  0.77024857  0.88444034    -0.14900
C1379       C  0.64645984  0.79750556  0.86706981     0.07200
C1380       C  0.68801668  0.76967881  0.85039362    -0.14900
H1381       H  0.72023799  0.70112024  0.83286866     0.11200
H1382       H  0.57228405  0.70033115  0.89450874     0.11200
H1383       H  0.57025172  0.78821784  0.89292270     0.11200
H1384       H  0.71936223  0.78607549  0.83276562     0.11200
loop_ 
_geom_bond_atom_site_label_1 
_geom_bond_atom_site_label_2 
_geom_bond_distance 
_geom_bond_site_symmetry_2 
_ccdc_geom_bond_type 
N1            N2   1.320       .  A
N1            N7   1.316       .  A
N1         Mn203   2.217       .  S
N2            C9   1.357       .  A
N3            N5   1.314       .  A
N3            N4   1.317       .  A
N3         Mn711   2.202   1_545  S
N4           C10   1.354       .  A
N5            N6   1.321       .  A
N5         Mn895   2.195       .  S
N6           C10   1.354       .  A
N7            N8   1.322       .  A
N7          Mn19   2.197   1_545  S
N8            C9   1.353       .  A
C9           C51   1.524       .  S
C10          C49   1.527       .  S
N11          N17   1.314       .  A
N11          N12   1.323       .  A
N11         Mn41   2.197   1_554  S
N12          C20   1.355       .  A
N13          N14   1.319       .  A
N13          N15   1.315       .  A
N13        Mn365   2.204       .  S
N14          C21   1.353       .  A
N15          N16   1.319       .  A
N15        Mn733   2.195   1_554  S
N16          C21   1.355       .  A
N17          N18   1.314       .  A
N17       Mn1057   2.194       .  S
N18          C20   1.351       .  A
Mn19        N695   2.202   1_565  S
Mn19        N359   2.204       .  S
Mn19       N1055   2.194       .  S
Mn19       Cl735   2.523       .  S
C20          C48   1.523       .  S
C21          C52   1.525       .  S
N22          N23   1.321       .  A
N22          N28   1.314       .  A
N22        Mn722   2.196       .  S
N23          C31   1.355       .  A
N24          N26   1.316       .  A
N24          N25   1.322       .  A
N24       Mn1080   2.202   1_545  S
N25          C32   1.353       .  A
N26          N27   1.319       .  A
N26         Mn30   2.212       .  S
N27          C32   1.356       .  A
N28          N29   1.317       .  A
N28        Mn388   2.195   1_545  S
N29          C31   1.352       .  A
Mn30        N174   2.217       .  S
Mn30        N870   2.195       .  S
Mn30        N714   2.196       .  S
Mn30       Cl908   2.557   1_545  S
C31          C46   1.521       .  S
C32          C50   1.523       .  S
N33          N34   1.319       .  A
N33          N39   1.314       .  A
N33        Mn906   2.198       .  S
N34          C44   1.356       .  A
N35          N36   1.315       .  A
N35          N37   1.314       .  A
N35         Mn42   2.203       .  S
N36          C45   1.353       .  A
N37          N38   1.324       .  A
N37        Mn214   2.198       .  S
N38          C45   1.356       .  A
N39          N40   1.319       .  A
N39        Mn734   2.198       .  S
N40          C44   1.352       .  A
Mn41        N707   2.195   1_456  S
Mn41        N898   2.198   1_455  S
Mn41        N210   2.198       .  S
Mn41       Cl389   2.564   1_556  S
Mn42       N1062   2.202   1_455  S
Mn42        N374   2.195       .  S
Mn42        N731   2.198   1_455  S
Mn42       Cl562   2.523       .  S
Cl43       Mn711   2.523       .  S
Cl43       Mn895   2.557   1_565  S
Cl43       Mn387   2.564   1_554  S
Cl43       Mn561   2.523   1_554  S
C44          C53   1.528       .  S
C45          C47   1.528       .  S
C46         C145   1.573       .  S
C46         C155   1.565       .  S
C46         C165   1.570       .  S
C47         C125   1.567       .  S
C47         C135   1.558       .  S
C47         C168   1.574       .  S
C48         C105   1.570       .  S
C48         C115   1.564       .  S
C48         C128   1.574       .  S
C49          C95   1.561       .  S
C49         C108   1.574       .  S
C49         C148   1.573       .  S
C50          C75   1.570       .  S
C50          C85   1.557       .  S
C50         C158   1.561       .  S
C51          C65   1.556       .  S
C51          C78   1.571       .  S
C51          C98   1.561       .  S
C52          C55   1.582       .  S
C52          C68   1.564       .  S
C52         C118   1.563       .  S
C53          C58   1.576       .  S
C53          C88   1.562       .  S
C53         C138   1.562       .  S
C54          C55   1.415       .  A
C54          C59   1.387       .  A
C54          H60   1.075       .  S
C55          C56   1.417       .  A
C56          C57   1.409       .  A
C56          H61   1.078       .  S
C57          C58   1.419       .  A
C57          H62   1.077       .  S
C58          C59   1.413       .  A
C59          H63   1.076       .  S
C64          C65   1.405       .  A
C64          C69   1.382       .  A
C64          H70   1.069       .  S
C65          C66   1.414       .  A
C66          C67   1.405       .  A
C66          H71   1.083       .  S
C67          C68   1.417       .  A
C67          H72   1.083       .  S
C68          C69   1.407       .  A
C69          H73   1.067       .  S
C74          C75   1.409       .  A
C74          C79   1.385       .  A
C74          H80   1.082       .  S
C75          C76   1.418       .  A
C76          C77   1.421       .  A
C76          H81   1.079       .  S
C77          C78   1.418       .  A
C77          H82   1.079       .  S
C78          C79   1.411       .  A
C79          H83   1.080       .  S
C84          C85   1.414       .  A
C84          C89   1.402       .  A
C84          H90   1.083       .  S
C85          C86   1.409       .  A
C86          C87   1.387       .  A
C86          H91   1.069       .  S
C87          C88   1.407       .  A
C87          H92   1.072       .  S
C88          C89   1.415       .  A
C89          H93   1.083       .  S
C94          C95   1.417       .  A
C94          C99   1.412       .  A
C94         H100   1.083       .  S
C95          C96   1.410       .  A
C96          C97   1.388       .  A
C96         H101   1.062       .  S
C97          C98   1.404       .  A
C97         H102   1.081       .  S
C98          C99   1.414       .  A
C99         H103   1.083       .  S
C104        C105   1.412       .  A
C104        C109   1.396       .  A
C104        H110   1.082       .  S
C105        C106   1.417       .  A
C106        C107   1.411       .  A
C106        H111   1.078       .  S
C107        C108   1.418       .  A
C107        H112   1.078       .  S
C108        C109   1.412       .  A
C109        H113   1.082       .  S
C114        C115   1.418       .  A
C114        C119   1.415       .  A
C114        H120   1.083       .  S
C115        C116   1.408       .  A
C116        C117   1.386       .  A
C116        H121   1.063       .  S
C117        C118   1.403       .  A
C117        H122   1.070       .  S
C118        C119   1.417       .  A
C119        H123   1.083       .  S
C124        C125   1.404       .  A
C124        C129   1.392       .  A
C124        H130   1.072       .  S
C125        C126   1.419       .  A
C126        C127   1.405       .  A
C126        H131   1.082       .  S
C127        C128   1.415       .  A
C127        H132   1.082       .  S
C128        C129   1.412       .  A
C129        H133   1.073       .  S
C134        C135   1.416       .  A
C134        C139   1.417       .  A
C134        H140   1.082       .  S
C135        C136   1.404       .  A
C136        C137   1.376       .  A
C136        H141   1.074       .  S
C137        C138   1.408       .  A
C137        H142   1.071       .  S
C138        C139   1.418       .  A
C139        H143   1.083       .  S
C144        C145   1.408       .  A
C144        C149   1.386       .  A
C144        H150   1.070       .  S
C145        C146   1.417       .  A
C146        C147   1.410       .  A
C146        H151   1.082       .  S
C147        C148   1.418       .  A
C147        H152   1.082       .  S
C148        C149   1.406       .  A
C149        H153   1.073       .  S
C154        C155   1.410       .  A
C154        C159   1.388       .  A
C154        H160   1.061       .  S
C155        C156   1.418       .  A
C156        C157   1.413       .  A
C156        H161   1.083       .  S
C157        C158   1.413       .  A
C157        H162   1.083       .  S
C158        C159   1.405       .  A
C159        H163   1.081       .  S
C164        C165   1.406       .  A
C164        C169   1.388       .  A
C164        H170   1.081       .  S
C165        C166   1.421       .  A
C166        C167   1.414       .  A
C166        H171   1.080       .  S
C167        C168   1.418       .  A
C167        H172   1.080       .  S
C168        C169   1.415       .  A
C169        H173   1.073       .  S
N174        N175   1.320       .  A
N174        N180   1.316       .  A
N175        C182   1.357       .  A
N176        N178   1.314       .  A
N176        N177   1.317       .  A
N176       Mn884   2.202   1_545  S
N177        C183   1.354       .  A
N178        N179   1.321       .  A
N178       Mn722   2.195       .  S
N179        C183   1.354       .  A
N180        N181   1.322       .  A
N180       Mn192   2.197   1_545  S
N181        C182   1.353       .  A
C182        C224   1.524       .  S
C183        C222   1.527       .  S
N184        N190   1.314       .  A
N184        N185   1.323       .  A
N184       Mn214   2.197       .  S
N185        C193   1.355       .  A
N186        N187   1.319       .  A
N186        N188   1.315       .  A
N186       Mn538   2.204       .  S
N187        C194   1.353       .  A
N188        N189   1.319       .  A
N188       Mn906   2.195       .  S
N189        C194   1.355       .  A
N190        N191   1.314       .  A
N190      Mn1230   2.194       .  S
N191        C193   1.351       .  A
Mn192       N868   2.202   1_565  S
Mn192       N532   2.204       .  S
Mn192      N1228   2.194       .  S
Mn192      Cl908   2.523       .  S
C193        C221   1.523       .  S
C194        C225   1.525       .  S
N195        N196   1.321       .  A
N195        N201   1.314       .  A
N195       Mn895   2.196   1_556  S
N196        C204   1.355       .  A
N197        N199   1.316       .  A
N197        N198   1.322       .  A
N197      Mn1253   2.202   1_545  S
N198        C205   1.353       .  A
N199        N200   1.319       .  A
N199       Mn203   2.212   1_556  S
N200        C205   1.356       .  A
N201        N202   1.317       .  A
N201       Mn561   2.195   1_545  S
N202        C204   1.352       .  A
Mn203       N697   2.195       .  S
Mn203       N887   2.196   1_554  S
Mn203      Cl735   2.557   1_545  S
C204        C219   1.521       .  S
C205        C223   1.523       .  S
N206        N207   1.319       .  A
N206        N212   1.314       .  A
N206       Mn733   2.198       .  S
N207        C217   1.356       .  A
N208        N209   1.315       .  A
N208        N210   1.314       .  A
N208       Mn215   2.203       .  S
N209        C218   1.353       .  A
N210        N211   1.324       .  A
N211        C218   1.356       .  A
N212        N213   1.319       .  A
N212       Mn907   2.198       .  S
N213        C217   1.352       .  A
Mn214       N880   2.195   1_455  S
Mn214       N725   2.198   1_455  S
Mn214      Cl562   2.564       .  S
Mn215      N1235   2.202   1_455  S
Mn215       N547   2.195       .  S
Mn215       N904   2.198   1_455  S
Mn215      Cl389   2.523   1_556  S
Cl216      Mn884   2.523       .  S
Cl216      Mn722   2.557   1_565  S
Cl216      Mn560   2.564       .  S
Cl216      Mn388   2.523       .  S
C217        C226   1.528       .  S
C218        C220   1.528       .  S
C219        C318   1.573       .  S
C219        C328   1.565       .  S
C219        C338   1.570       .  S
C220        C298   1.567       .  S
C220        C308   1.558       .  S
C220        C341   1.574       .  S
C221        C278   1.570       .  S
C221        C288   1.564       .  S
C221        C301   1.574       .  S
C222        C268   1.561       .  S
C222        C281   1.574       .  S
C222        C321   1.573       .  S
C223        C248   1.570       .  S
C223        C258   1.557       .  S
C223        C331   1.561       .  S
C224        C238   1.556       .  S
C224        C251   1.571       .  S
C224        C271   1.561       .  S
C225        C228   1.582       .  S
C225        C241   1.564       .  S
C225        C291   1.563       .  S
C226        C231   1.576       .  S
C226        C261   1.562       .  S
C226        C311   1.562       .  S
C227        C228   1.415       .  A
C227        C232   1.387       .  A
C227        H233   1.075       .  S
C228        C229   1.417       .  A
C229        C230   1.409       .  A
C229        H234   1.078       .  S
C230        C231   1.419       .  A
C230        H235   1.077       .  S
C231        C232   1.413       .  A
C232        H236   1.076       .  S
C237        C238   1.405       .  A
C237        C242   1.382       .  A
C237        H243   1.069       .  S
C238        C239   1.414       .  A
C239        C240   1.405       .  A
C239        H244   1.083       .  S
C240        C241   1.417       .  A
C240        H245   1.083       .  S
C241        C242   1.407       .  A
C242        H246   1.067       .  S
C247        C248   1.409       .  A
C247        C252   1.385       .  A
C247        H253   1.082       .  S
C248        C249   1.418       .  A
C249        C250   1.421       .  A
C249        H254   1.079       .  S
C250        C251   1.418       .  A
C250        H255   1.079       .  S
C251        C252   1.411       .  A
C252        H256   1.080       .  S
C257        C258   1.414       .  A
C257        C262   1.402       .  A
C257        H263   1.083       .  S
C258        C259   1.409       .  A
C259        C260   1.387       .  A
C259        H264   1.069       .  S
C260        C261   1.407       .  A
C260        H265   1.072       .  S
C261        C262   1.415       .  A
C262        H266   1.083       .  S
C267        C268   1.417       .  A
C267        C272   1.412       .  A
C267        H273   1.083       .  S
C268        C269   1.410       .  A
C269        C270   1.388       .  A
C269        H274   1.062       .  S
C270        C271   1.404       .  A
C270        H275   1.081       .  S
C271        C272   1.414       .  A
C272        H276   1.083       .  S
C277        C278   1.412       .  A
C277        C282   1.396       .  A
C277        H283   1.082       .  S
C278        C279   1.417       .  A
C279        C280   1.411       .  A
C279        H284   1.078       .  S
C280        C281   1.418       .  A
C280        H285   1.078       .  S
C281        C282   1.412       .  A
C282        H286   1.082       .  S
C287        C288   1.418       .  A
C287        C292   1.415       .  A
C287        H293   1.083       .  S
C288        C289   1.408       .  A
C289        C290   1.386       .  A
C289        H294   1.063       .  S
C290        C291   1.403       .  A
C290        H295   1.070       .  S
C291        C292   1.417       .  A
C292        H296   1.083       .  S
C297        C298   1.404       .  A
C297        C302   1.392       .  A
C297        H303   1.072       .  S
C298        C299   1.419       .  A
C299        C300   1.405       .  A
C299        H304   1.082       .  S
C300        C301   1.415       .  A
C300        H305   1.082       .  S
C301        C302   1.412       .  A
C302        H306   1.073       .  S
C307        C308   1.416       .  A
C307        C312   1.417       .  A
C307        H313   1.082       .  S
C308        C309   1.404       .  A
C309        C310   1.376       .  A
C309        H314   1.074       .  S
C310        C311   1.408       .  A
C310        H315   1.071       .  S
C311        C312   1.418       .  A
C312        H316   1.083       .  S
C317        C318   1.408       .  A
C317        C322   1.386       .  A
C317        H323   1.070       .  S
C318        C319   1.417       .  A
C319        C320   1.410       .  A
C319        H324   1.082       .  S
C320        C321   1.418       .  A
C320        H325   1.082       .  S
C321        C322   1.406       .  A
C322        H326   1.073       .  S
C327        C328   1.410       .  A
C327        C332   1.388       .  A
C327        H333   1.061       .  S
C328        C329   1.418       .  A
C329        C330   1.413       .  A
C329        H334   1.083       .  S
C330        C331   1.413       .  A
C330        H335   1.083       .  S
C331        C332   1.405       .  A
C332        H336   1.081       .  S
C337        C338   1.406       .  A
C337        C342   1.388       .  A
C337        H343   1.081       .  S
C338        C339   1.421       .  A
C339        C340   1.414       .  A
C339        H344   1.080       .  S
C340        C341   1.418       .  A
C340        H345   1.080       .  S
C341        C342   1.415       .  A
C342        H346   1.073       .  S
N347        N348   1.320       .  A
N347        N353   1.316       .  A
N347       Mn549   2.217       .  S
N348        C355   1.357       .  A
N349        N351   1.314       .  A
N349        N350   1.317       .  A
N349      Mn1057   2.202       .  S
N350        C356   1.354       .  A
N351        N352   1.321       .  A
N351      Mn1241   2.195       .  S
N352        C356   1.354       .  A
N353        N354   1.322       .  A
N353       Mn365   2.197       .  S
N354        C355   1.353       .  A
C355        C397   1.524       .  S
C356        C395   1.527       .  S
N357        N363   1.314       .  A
N357        N358   1.323       .  A
N357       Mn387   2.197   1_554  S
N358        C366   1.355       .  A
N359        N360   1.319       .  A
N359        N361   1.315       .  A
N360        C367   1.353       .  A
N361        N362   1.319       .  A
N361      Mn1079   2.195   1_554  S
N362        C367   1.355       .  A
N363        N364   1.314       .  A
N363       Mn711   2.194       .  S
N364        C366   1.351       .  A
Mn365      N1041   2.202       .  S
Mn365       N709   2.194       .  S
Mn365     Cl1081   2.523       .  S
C366        C394   1.523       .  S
C367        C398   1.525       .  S
N368        N369   1.321       .  A
N368        N374   1.314       .  A
N368      Mn1068   2.196       .  S
N369        C377   1.355       .  A
N370        N372   1.316       .  A
N370        N371   1.322       .  A
N370       Mn734   2.202       .  S
N371        C378   1.353       .  A
N372        N373   1.319       .  A
N372       Mn376   2.212       .  S
N373        C378   1.356       .  A
N374        N375   1.317       .  A
N375        C377   1.352       .  A
Mn376       N520   2.217       .  S
Mn376      N1216   2.195       .  S
Mn376      N1060   2.196       .  S
Mn376     Cl1254   2.557       .  S
C377        C392   1.521       .  S
C378        C396   1.523       .  S
N379        N380   1.319       .  A
N379        N385   1.314       .  A
N379      Mn1252   2.198       .  S
N380        C390   1.356       .  A
N381        N382   1.315       .  A
N381        N383   1.314       .  A
N381       Mn388   2.203       .  S
N382        C391   1.353       .  A
N383        N384   1.324       .  A
N383       Mn560   2.198       .  S
N384        C391   1.356       .  A
N385        N386   1.319       .  A
N385      Mn1080   2.198       .  S
N386        C390   1.352       .  A
Mn387      N1053   2.195   1_456  S
Mn387      N1244   2.198   1_455  S
Mn387       N556   2.198       .  S
Mn388       N716   2.202   1_465  S
Mn388      N1077   2.198   1_455  S
Cl389     Mn1057   2.523       .  S
Cl389     Mn1241   2.557       .  S
C390        C399   1.528       .  S
C391        C393   1.528       .  S
C392        C491   1.573       .  S
C392        C501   1.565       .  S
C392        C511   1.570       .  S
C393        C471   1.567       .  S
C393        C481   1.558       .  S
C393        C514   1.574       .  S
C394        C451   1.570       .  S
C394        C461   1.564       .  S
C394        C474   1.574       .  S
C395        C441   1.561       .  S
C395        C454   1.574       .  S
C395        C494   1.573       .  S
C396        C421   1.570       .  S
C396        C431   1.557       .  S
C396        C504   1.561       .  S
C397        C411   1.556       .  S
C397        C424   1.571       .  S
C397        C444   1.561       .  S
C398        C401   1.582       .  S
C398        C414   1.564       .  S
C398        C464   1.563       .  S
C399        C404   1.576       .  S
C399        C434   1.562       .  S
C399        C484   1.562       .  S
C400        C401   1.415       .  A
C400        C405   1.387       .  A
C400        H406   1.075       .  S
C401        C402   1.417       .  A
C402        C403   1.409       .  A
C402        H407   1.078       .  S
C403        C404   1.419       .  A
C403        H408   1.077       .  S
C404        C405   1.413       .  A
C405        H409   1.076       .  S
C410        C411   1.405       .  A
C410        C415   1.382       .  A
C410        H416   1.069       .  S
C411        C412   1.414       .  A
C412        C413   1.405       .  A
C412        H417   1.083       .  S
C413        C414   1.417       .  A
C413        H418   1.083       .  S
C414        C415   1.407       .  A
C415        H419   1.067       .  S
C420        C421   1.409       .  A
C420        C425   1.385       .  A
C420        H426   1.082       .  S
C421        C422   1.418       .  A
C422        C423   1.421       .  A
C422        H427   1.079       .  S
C423        C424   1.418       .  A
C423        H428   1.079       .  S
C424        C425   1.411       .  A
C425        H429   1.080       .  S
C430        C431   1.414       .  A
C430        C435   1.402       .  A
C430        H436   1.083       .  S
C431        C432   1.409       .  A
C432        C433   1.387       .  A
C432        H437   1.069       .  S
C433        C434   1.407       .  A
C433        H438   1.072       .  S
C434        C435   1.415       .  A
C435        H439   1.083       .  S
C440        C441   1.417       .  A
C440        C445   1.412       .  A
C440        H446   1.083       .  S
C441        C442   1.410       .  A
C442        C443   1.388       .  A
C442        H447   1.062       .  S
C443        C444   1.404       .  A
C443        H448   1.081       .  S
C444        C445   1.414       .  A
C445        H449   1.083       .  S
C450        C451   1.412       .  A
C450        C455   1.396       .  A
C450        H456   1.082       .  S
C451        C452   1.417       .  A
C452        C453   1.411       .  A
C452        H457   1.078       .  S
C453        C454   1.418       .  A
C453        H458   1.078       .  S
C454        C455   1.412       .  A
C455        H459   1.082       .  S
C460        C461   1.418       .  A
C460        C465   1.415       .  A
C460        H466   1.083       .  S
C461        C462   1.408       .  A
C462        C463   1.386       .  A
C462        H467   1.063       .  S
C463        C464   1.403       .  A
C463        H468   1.070       .  S
C464        C465   1.417       .  A
C465        H469   1.083       .  S
C470        C471   1.404       .  A
C470        C475   1.392       .  A
C470        H476   1.072       .  S
C471        C472   1.419       .  A
C472        C473   1.405       .  A
C472        H477   1.082       .  S
C473        C474   1.415       .  A
C473        H478   1.082       .  S
C474        C475   1.412       .  A
C475        H479   1.073       .  S
C480        C481   1.416       .  A
C480        C485   1.417       .  A
C480        H486   1.082       .  S
C481        C482   1.404       .  A
C482        C483   1.376       .  A
C482        H487   1.074       .  S
C483        C484   1.408       .  A
C483        H488   1.071       .  S
C484        C485   1.418       .  A
C485        H489   1.083       .  S
C490        C491   1.408       .  A
C490        C495   1.386       .  A
C490        H496   1.070       .  S
C491        C492   1.417       .  A
C492        C493   1.410       .  A
C492        H497   1.082       .  S
C493        C494   1.418       .  A
C493        H498   1.082       .  S
C494        C495   1.406       .  A
C495        H499   1.073       .  S
C500        C501   1.410       .  A
C500        C505   1.388       .  A
C500        H506   1.061       .  S
C501        C502   1.418       .  A
C502        C503   1.413       .  A
C502        H507   1.083       .  S
C503        C504   1.413       .  A
C503        H508   1.083       .  S
C504        C505   1.405       .  A
C505        H509   1.081       .  S
C510        C511   1.406       .  A
C510        C515   1.388       .  A
C510        H516   1.081       .  S
C511        C512   1.421       .  A
C512        C513   1.414       .  A
C512        H517   1.080       .  S
C513        C514   1.418       .  A
C513        H518   1.080       .  S
C514        C515   1.415       .  A
C515        H519   1.073       .  S
N520        N521   1.320       .  A
N520        N526   1.316       .  A
N521        C528   1.357       .  A
N522        N524   1.314       .  A
N522        N523   1.317       .  A
N522      Mn1230   2.202       .  S
N523        C529   1.354       .  A
N524        N525   1.321       .  A
N524      Mn1068   2.195       .  S
N525        C529   1.354       .  A
N526        N527   1.322       .  A
N526       Mn538   2.197       .  S
N527        C528   1.353       .  A
C528        C570   1.524       .  S
C529        C568   1.527       .  S
N530        N536   1.314       .  A
N530        N531   1.323       .  A
N530       Mn560   2.197       .  S
N531        C539   1.355       .  A
N532        N533   1.319       .  A
N532        N534   1.315       .  A
N533        C540   1.353       .  A
N534        N535   1.319       .  A
N534      Mn1252   2.195       .  S
N535        C540   1.355       .  A
N536        N537   1.314       .  A
N536       Mn884   2.194       .  S
N537        C539   1.351       .  A
Mn538      N1214   2.202       .  S
Mn538       N882   2.194       .  S
Mn538     Cl1254   2.523       .  S
C539        C567   1.523       .  S
C540        C571   1.525       .  S
N541        N542   1.321       .  A
N541        N547   1.314       .  A
N541      Mn1241   2.196   1_556  S
N542        C550   1.355       .  A
N543        N545   1.316       .  A
N543        N544   1.322       .  A
N543       Mn907   2.202       .  S
N544        C551   1.353       .  A
N545        N546   1.319       .  A
N545       Mn549   2.212   1_556  S
N546        C551   1.356       .  A
N547        N548   1.317       .  A
N548        C550   1.352       .  A
Mn549      N1043   2.195       .  S
Mn549      N1233   2.196   1_554  S
Mn549     Cl1081   2.557       .  S
C550        C565   1.521       .  S
C551        C569   1.523       .  S
N552        N553   1.319       .  A
N552        N558   1.314       .  A
N552      Mn1079   2.198       .  S
N553        C563   1.356       .  A
N554        N555   1.315       .  A
N554        N556   1.314       .  A
N554       Mn561   2.203       .  S
N555        C564   1.353       .  A
N556        N557   1.324       .  A
N557        C564   1.356       .  A
N558        N559   1.319       .  A
N558      Mn1253   2.198       .  S
N559        C563   1.352       .  A
Mn560      N1226   2.195   1_455  S
Mn560      N1071   2.198   1_455  S
Mn561       N889   2.202   1_465  S
Mn561      N1250   2.198   1_455  S
Cl562     Mn1230   2.523       .  S
Cl562     Mn1068   2.557       .  S
C563        C572   1.528       .  S
C564        C566   1.528       .  S
C565        C664   1.573       .  S
C565        C674   1.565       .  S
C565        C684   1.570       .  S
C566        C644   1.567       .  S
C566        C654   1.558       .  S
C566        C687   1.574       .  S
C567        C624   1.570       .  S
C567        C634   1.564       .  S
C567        C647   1.574       .  S
C568        C614   1.561       .  S
C568        C627   1.574       .  S
C568        C667   1.573       .  S
C569        C594   1.570       .  S
C569        C604   1.557       .  S
C569        C677   1.561       .  S
C570        C584   1.556       .  S
C570        C597   1.571       .  S
C570        C617   1.561       .  S
C571        C574   1.582       .  S
C571        C587   1.564       .  S
C571        C637   1.563       .  S
C572        C577   1.576       .  S
C572        C607   1.562       .  S
C572        C657   1.562       .  S
C573        C574   1.415       .  A
C573        C578   1.387       .  A
C573        H579   1.075       .  S
C574        C575   1.417       .  A
C575        C576   1.409       .  A
C575        H580   1.078       .  S
C576        C577   1.419       .  A
C576        H581   1.077       .  S
C577        C578   1.413       .  A
C578        H582   1.076       .  S
C583        C584   1.405       .  A
C583        C588   1.382       .  A
C583        H589   1.069       .  S
C584        C585   1.414       .  A
C585        C586   1.405       .  A
C585        H590   1.083       .  S
C586        C587   1.417       .  A
C586        H591   1.083       .  S
C587        C588   1.407       .  A
C588        H592   1.067       .  S
C593        C594   1.409       .  A
C593        C598   1.385       .  A
C593        H599   1.082       .  S
C594        C595   1.418       .  A
C595        C596   1.421       .  A
C595        H600   1.079       .  S
C596        C597   1.418       .  A
C596        H601   1.079       .  S
C597        C598   1.411       .  A
C598        H602   1.080       .  S
C603        C604   1.414       .  A
C603        C608   1.402       .  A
C603        H609   1.083       .  S
C604        C605   1.409       .  A
C605        C606   1.387       .  A
C605        H610   1.069       .  S
C606        C607   1.407       .  A
C606        H611   1.072       .  S
C607        C608   1.415       .  A
C608        H612   1.083       .  S
C613        C614   1.417       .  A
C613        C618   1.412       .  A
C613        H619   1.083       .  S
C614        C615   1.410       .  A
C615        C616   1.388       .  A
C615        H620   1.062       .  S
C616        C617   1.404       .  A
C616        H621   1.081       .  S
C617        C618   1.414       .  A
C618        H622   1.083       .  S
C623        C624   1.412       .  A
C623        C628   1.396       .  A
C623        H629   1.082       .  S
C624        C625   1.417       .  A
C625        C626   1.411       .  A
C625        H630   1.078       .  S
C626        C627   1.418       .  A
C626        H631   1.078       .  S
C627        C628   1.412       .  A
C628        H632   1.082       .  S
C633        C634   1.418       .  A
C633        C638   1.415       .  A
C633        H639   1.083       .  S
C634        C635   1.408       .  A
C635        C636   1.386       .  A
C635        H640   1.063       .  S
C636        C637   1.403       .  A
C636        H641   1.070       .  S
C637        C638   1.417       .  A
C638        H642   1.083       .  S
C643        C644   1.404       .  A
C643        C648   1.392       .  A
C643        H649   1.072       .  S
C644        C645   1.419       .  A
C645        C646   1.405       .  A
C645        H650   1.082       .  S
C646        C647   1.415       .  A
C646        H651   1.082       .  S
C647        C648   1.412       .  A
C648        H652   1.073       .  S
C653        C654   1.416       .  A
C653        C658   1.417       .  A
C653        H659   1.082       .  S
C654        C655   1.404       .  A
C655        C656   1.376       .  A
C655        H660   1.074       .  S
C656        C657   1.408       .  A
C656        H661   1.071       .  S
C657        C658   1.418       .  A
C658        H662   1.083       .  S
C663        C664   1.408       .  A
C663        C668   1.386       .  A
C663        H669   1.070       .  S
C664        C665   1.417       .  A
C665        C666   1.410       .  A
C665        H670   1.082       .  S
C666        C667   1.418       .  A
C666        H671   1.082       .  S
C667        C668   1.406       .  A
C668        H672   1.073       .  S
C673        C674   1.410       .  A
C673        C678   1.388       .  A
C673        H679   1.061       .  S
C674        C675   1.418       .  A
C675        C676   1.413       .  A
C675        H680   1.083       .  S
C676        C677   1.413       .  A
C676        H681   1.083       .  S
C677        C678   1.405       .  A
C678        H682   1.081       .  S
C683        C684   1.406       .  A
C683        C688   1.388       .  A
C683        H689   1.081       .  S
C684        C685   1.421       .  A
C685        C686   1.414       .  A
C685        H690   1.080       .  S
C686        C687   1.418       .  A
C686        H691   1.080       .  S
C687        C688   1.415       .  A
C688        H692   1.073       .  S
N693        N694   1.320       .  A
N693        N699   1.316       .  A
N693       Mn895   2.217   1_655  S
N694        C701   1.357       .  A
N695        N697   1.314       .  A
N695        N696   1.317       .  A
N696        C702   1.354       .  A
N697        N698   1.321       .  A
N698        C702   1.354       .  A
N699        N700   1.322       .  A
N699       Mn711   2.197   1_645  S
N700        C701   1.353       .  A
C701        C743   1.524       .  S
C702        C741   1.527       .  S
N703        N709   1.314       .  A
N703        N704   1.323       .  A
N703       Mn733   2.197   1_554  S
N704        C712   1.355       .  A
N705        N706   1.319       .  A
N705        N707   1.315       .  A
N705      Mn1057   2.204   1_655  S
N706        C713   1.353       .  A
N707        N708   1.319       .  A
N708        C713   1.355       .  A
N709        N710   1.314       .  A
N710        C712   1.351       .  A
Mn711      N1051   2.204   1_455  S
C712        C740   1.523       .  S
C713        C744   1.525       .  S
N714        N715   1.321       .  A
N714        N720   1.314       .  A
N715        C723   1.355       .  A
N716        N718   1.316       .  A
N716        N717   1.322       .  A
N717        C724   1.353       .  A
N718        N719   1.319       .  A
N718       Mn722   2.212   1_655  S
N719        C724   1.356       .  A
N720        N721   1.317       .  A
N720      Mn1080   2.195   1_545  S
N721        C723   1.352       .  A
Mn722       N866   2.217   1_455  S
C723        C738   1.521       .  S
C724        C742   1.523       .  S
N725        N726   1.319       .  A
N725        N731   1.314       .  A
N726        C736   1.356       .  A
N727        N728   1.315       .  A
N727        N729   1.314       .  A
N727       Mn734   2.203       .  S
N728        C737   1.353       .  A
N729        N730   1.324       .  A
N729       Mn906   2.198       .  S
N730        C737   1.356       .  A
N731        N732   1.319       .  A
N732        C736   1.352       .  A
Mn733       N902   2.198       .  S
Mn733     Cl1081   2.564   1_556  S
Mn734      N1066   2.195       .  S
Mn734     Cl1254   2.523       .  S
Cl735     Mn1079   2.564   1_554  S
Cl735     Mn1253   2.523   1_554  S
C736        C745   1.528       .  S
C737        C739   1.528       .  S
C738        C837   1.573       .  S
C738        C847   1.565       .  S
C738        C857   1.570       .  S
C739        C817   1.567       .  S
C739        C827   1.558       .  S
C739        C860   1.574       .  S
C740        C797   1.570       .  S
C740        C807   1.564       .  S
C740        C820   1.574       .  S
C741        C787   1.561       .  S
C741        C800   1.574       .  S
C741        C840   1.573       .  S
C742        C767   1.570       .  S
C742        C777   1.557       .  S
C742        C850   1.561       .  S
C743        C757   1.556       .  S
C743        C770   1.571       .  S
C743        C790   1.561       .  S
C744        C747   1.582       .  S
C744        C760   1.564       .  S
C744        C810   1.563       .  S
C745        C750   1.576       .  S
C745        C780   1.562       .  S
C745        C830   1.562       .  S
C746        C747   1.415       .  A
C746        C751   1.387       .  A
C746        H752   1.075       .  S
C747        C748   1.417       .  A
C748        C749   1.409       .  A
C748        H753   1.078       .  S
C749        C750   1.419       .  A
C749        H754   1.077       .  S
C750        C751   1.413       .  A
C751        H755   1.076       .  S
C756        C757   1.405       .  A
C756        C761   1.382       .  A
C756        H762   1.069       .  S
C757        C758   1.414       .  A
C758        C759   1.405       .  A
C758        H763   1.083       .  S
C759        C760   1.417       .  A
C759        H764   1.083       .  S
C760        C761   1.407       .  A
C761        H765   1.067       .  S
C766        C767   1.409       .  A
C766        C771   1.385       .  A
C766        H772   1.082       .  S
C767        C768   1.418       .  A
C768        C769   1.421       .  A
C768        H773   1.079       .  S
C769        C770   1.418       .  A
C769        H774   1.079       .  S
C770        C771   1.411       .  A
C771        H775   1.080       .  S
C776        C777   1.414       .  A
C776        C781   1.402       .  A
C776        H782   1.083       .  S
C777        C778   1.409       .  A
C778        C779   1.387       .  A
C778        H783   1.069       .  S
C779        C780   1.407       .  A
C779        H784   1.072       .  S
C780        C781   1.415       .  A
C781        H785   1.083       .  S
C786        C787   1.417       .  A
C786        C791   1.412       .  A
C786        H792   1.083       .  S
C787        C788   1.410       .  A
C788        C789   1.388       .  A
C788        H793   1.062       .  S
C789        C790   1.404       .  A
C789        H794   1.081       .  S
C790        C791   1.414       .  A
C791        H795   1.083       .  S
C796        C797   1.412       .  A
C796        C801   1.396       .  A
C796        H802   1.082       .  S
C797        C798   1.417       .  A
C798        C799   1.411       .  A
C798        H803   1.078       .  S
C799        C800   1.418       .  A
C799        H804   1.078       .  S
C800        C801   1.412       .  A
C801        H805   1.082       .  S
C806        C807   1.418       .  A
C806        C811   1.415       .  A
C806        H812   1.083       .  S
C807        C808   1.408       .  A
C808        C809   1.386       .  A
C808        H813   1.063       .  S
C809        C810   1.403       .  A
C809        H814   1.070       .  S
C810        C811   1.417       .  A
C811        H815   1.083       .  S
C816        C817   1.404       .  A
C816        C821   1.392       .  A
C816        H822   1.072       .  S
C817        C818   1.419       .  A
C818        C819   1.405       .  A
C818        H823   1.082       .  S
C819        C820   1.415       .  A
C819        H824   1.082       .  S
C820        C821   1.412       .  A
C821        H825   1.073       .  S
C826        C827   1.416       .  A
C826        C831   1.417       .  A
C826        H832   1.082       .  S
C827        C828   1.404       .  A
C828        C829   1.376       .  A
C828        H833   1.074       .  S
C829        C830   1.408       .  A
C829        H834   1.071       .  S
C830        C831   1.418       .  A
C831        H835   1.083       .  S
C836        C837   1.408       .  A
C836        C841   1.386       .  A
C836        H842   1.070       .  S
C837        C838   1.417       .  A
C838        C839   1.410       .  A
C838        H843   1.082       .  S
C839        C840   1.418       .  A
C839        H844   1.082       .  S
C840        C841   1.406       .  A
C841        H845   1.073       .  S
C846        C847   1.410       .  A
C846        C851   1.388       .  A
C846        H852   1.061       .  S
C847        C848   1.418       .  A
C848        C849   1.413       .  A
C848        H853   1.083       .  S
C849        C850   1.413       .  A
C849        H854   1.083       .  S
C850        C851   1.405       .  A
C851        H855   1.081       .  S
C856        C857   1.406       .  A
C856        C861   1.388       .  A
C856        H862   1.081       .  S
C857        C858   1.421       .  A
C858        C859   1.414       .  A
C858        H863   1.080       .  S
C859        C860   1.418       .  A
C859        H864   1.080       .  S
C860        C861   1.415       .  A
C861        H865   1.073       .  S
N866        N867   1.320       .  A
N866        N872   1.316       .  A
N867        C874   1.357       .  A
N868        N870   1.314       .  A
N868        N869   1.317       .  A
N869        C875   1.354       .  A
N870        N871   1.321       .  A
N871        C875   1.354       .  A
N872        N873   1.322       .  A
N872       Mn884   2.197   1_645  S
N873        C874   1.353       .  A
C874        C916   1.524       .  S
C875        C914   1.527       .  S
N876        N882   1.314       .  A
N876        N877   1.323       .  A
N876       Mn906   2.197       .  S
N877        C885   1.355       .  A
N878        N879   1.319       .  A
N878        N880   1.315       .  A
N878      Mn1230   2.204   1_655  S
N879        C886   1.353       .  A
N880        N881   1.319       .  A
N881        C886   1.355       .  A
N882        N883   1.314       .  A
N883        C885   1.351       .  A
Mn884      N1224   2.204   1_455  S
C885        C913   1.523       .  S
C886        C917   1.525       .  S
N887        N888   1.321       .  A
N887        N893   1.314       .  A
N888        C896   1.355       .  A
N889        N891   1.316       .  A
N889        N890   1.322       .  A
N890        C897   1.353       .  A
N891        N892   1.319       .  A
N891       Mn895   2.212   1_656  S
N892        C897   1.356       .  A
N893        N894   1.317       .  A
N893      Mn1253   2.195   1_545  S
N894        C896   1.352       .  A
C896        C911   1.521       .  S
C897        C915   1.523       .  S
N898        N899   1.319       .  A
N898        N904   1.314       .  A
N899        C909   1.356       .  A
N900        N901   1.315       .  A
N900        N902   1.314       .  A
N900       Mn907   2.203       .  S
N901        C910   1.353       .  A
N902        N903   1.324       .  A
N903        C910   1.356       .  A
N904        N905   1.319       .  A
N905        C909   1.352       .  A
Mn906     Cl1254   2.564       .  S
Mn907      N1239   2.195       .  S
Mn907     Cl1081   2.523   1_556  S
Cl908     Mn1252   2.564       .  S
Cl908     Mn1080   2.523       .  S
C909        C918   1.528       .  S
C910        C912   1.528       .  S
C911       C1010   1.573       .  S
C911       C1020   1.565       .  S
C911       C1030   1.570       .  S
C912        C990   1.567       .  S
C912       C1000   1.558       .  S
C912       C1033   1.574       .  S
C913        C970   1.570       .  S
C913        C980   1.564       .  S
C913        C993   1.574       .  S
C914        C960   1.561       .  S
C914        C973   1.574       .  S
C914       C1013   1.573       .  S
C915        C940   1.570       .  S
C915        C950   1.557       .  S
C915       C1023   1.561       .  S
C916        C930   1.556       .  S
C916        C943   1.571       .  S
C916        C963   1.561       .  S
C917        C920   1.582       .  S
C917        C933   1.564       .  S
C917        C983   1.563       .  S
C918        C923   1.576       .  S
C918        C953   1.562       .  S
C918       C1003   1.562       .  S
C919        C920   1.415       .  A
C919        C924   1.387       .  A
C919        H925   1.075       .  S
C920        C921   1.417       .  A
C921        C922   1.409       .  A
C921        H926   1.078       .  S
C922        C923   1.419       .  A
C922        H927   1.077       .  S
C923        C924   1.413       .  A
C924        H928   1.076       .  S
C929        C930   1.405       .  A
C929        C934   1.382       .  A
C929        H935   1.069       .  S
C930        C931   1.414       .  A
C931        C932   1.405       .  A
C931        H936   1.083       .  S
C932        C933   1.417       .  A
C932        H937   1.083       .  S
C933        C934   1.407       .  A
C934        H938   1.067       .  S
C939        C940   1.409       .  A
C939        C944   1.385       .  A
C939        H945   1.082       .  S
C940        C941   1.418       .  A
C941        C942   1.421       .  A
C941        H946   1.079       .  S
C942        C943   1.418       .  A
C942        H947   1.079       .  S
C943        C944   1.411       .  A
C944        H948   1.080       .  S
C949        C950   1.414       .  A
C949        C954   1.402       .  A
C949        H955   1.083       .  S
C950        C951   1.409       .  A
C951        C952   1.387       .  A
C951        H956   1.069       .  S
C952        C953   1.407       .  A
C952        H957   1.072       .  S
C953        C954   1.415       .  A
C954        H958   1.083       .  S
C959        C960   1.417       .  A
C959        C964   1.412       .  A
C959        H965   1.083       .  S
C960        C961   1.410       .  A
C961        C962   1.388       .  A
C961        H966   1.062       .  S
C962        C963   1.404       .  A
C962        H967   1.081       .  S
C963        C964   1.414       .  A
C964        H968   1.083       .  S
C969        C970   1.412       .  A
C969        C974   1.396       .  A
C969        H975   1.082       .  S
C970        C971   1.417       .  A
C971        C972   1.411       .  A
C971        H976   1.078       .  S
C972        C973   1.418       .  A
C972        H977   1.078       .  S
C973        C974   1.412       .  A
C974        H978   1.082       .  S
C979        C980   1.418       .  A
C979        C984   1.415       .  A
C979        H985   1.083       .  S
C980        C981   1.408       .  A
C981        C982   1.386       .  A
C981        H986   1.063       .  S
C982        C983   1.403       .  A
C982        H987   1.070       .  S
C983        C984   1.417       .  A
C984        H988   1.083       .  S
C989        C990   1.404       .  A
C989        C994   1.392       .  A
C989        H995   1.072       .  S
C990        C991   1.419       .  A
C991        C992   1.405       .  A
C991        H996   1.082       .  S
C992        C993   1.415       .  A
C992        H997   1.082       .  S
C993        C994   1.412       .  A
C994        H998   1.073       .  S
C999       C1000   1.416       .  A
C999       C1004   1.417       .  A
C999       H1005   1.082       .  S
C1000      C1001   1.404       .  A
C1001      C1002   1.376       .  A
C1001      H1006   1.074       .  S
C1002      C1003   1.408       .  A
C1002      H1007   1.071       .  S
C1003      C1004   1.418       .  A
C1004      H1008   1.083       .  S
C1009      C1010   1.408       .  A
C1009      C1014   1.386       .  A
C1009      H1015   1.070       .  S
C1010      C1011   1.417       .  A
C1011      C1012   1.410       .  A
C1011      H1016   1.082       .  S
C1012      C1013   1.418       .  A
C1012      H1017   1.082       .  S
C1013      C1014   1.406       .  A
C1014      H1018   1.073       .  S
C1019      C1020   1.410       .  A
C1019      C1024   1.388       .  A
C1019      H1025   1.061       .  S
C1020      C1021   1.418       .  A
C1021      C1022   1.413       .  A
C1021      H1026   1.083       .  S
C1022      C1023   1.413       .  A
C1022      H1027   1.083       .  S
C1023      C1024   1.405       .  A
C1024      H1028   1.081       .  S
C1029      C1030   1.406       .  A
C1029      C1034   1.388       .  A
C1029      H1035   1.081       .  S
C1030      C1031   1.421       .  A
C1031      C1032   1.414       .  A
C1031      H1036   1.080       .  S
C1032      C1033   1.418       .  A
C1032      H1037   1.080       .  S
C1033      C1034   1.415       .  A
C1034      H1038   1.073       .  S
N1039      N1040   1.320       .  A
N1039      N1045   1.316       .  A
N1039     Mn1241   2.217   1_655  S
N1040      C1047   1.357       .  A
N1041      N1043   1.314       .  A
N1041      N1042   1.317       .  A
N1042      C1048   1.354       .  A
N1043      N1044   1.321       .  A
N1044      C1048   1.354       .  A
N1045      N1046   1.322       .  A
N1045     Mn1057   2.197   1_655  S
N1046      C1047   1.353       .  A
C1047      C1089   1.524       .  S
C1048      C1087   1.527       .  S
N1049      N1055   1.314       .  A
N1049      N1050   1.323       .  A
N1049     Mn1079   2.197   1_554  S
N1050      C1058   1.355       .  A
N1051      N1052   1.319       .  A
N1051      N1053   1.315       .  A
N1052      C1059   1.353       .  A
N1053      N1054   1.319       .  A
N1054      C1059   1.355       .  A
N1055      N1056   1.314       .  A
N1056      C1058   1.351       .  A
C1058      C1086   1.523       .  S
C1059      C1090   1.525       .  S
N1060      N1061   1.321       .  A
N1060      N1066   1.314       .  A
N1061      C1069   1.355       .  A
N1062      N1064   1.316       .  A
N1062      N1063   1.322       .  A
N1063      C1070   1.353       .  A
N1064      N1065   1.319       .  A
N1064     Mn1068   2.212   1_655  S
N1065      C1070   1.356       .  A
N1066      N1067   1.317       .  A
N1067      C1069   1.352       .  A
Mn1068     N1212   2.217   1_455  S
C1069      C1084   1.521       .  S
C1070      C1088   1.523       .  S
N1071      N1072   1.319       .  A
N1071      N1077   1.314       .  A
N1072      C1082   1.356       .  A
N1073      N1074   1.315       .  A
N1073      N1075   1.314       .  A
N1073     Mn1080   2.203       .  S
N1074      C1083   1.353       .  A
N1075      N1076   1.324       .  A
N1075     Mn1252   2.198       .  S
N1076      C1083   1.356       .  A
N1077      N1078   1.319       .  A
N1078      C1082   1.352       .  A
Mn1079     N1248   2.198       .  S
C1082      C1091   1.528       .  S
C1083      C1085   1.528       .  S
C1084      C1183   1.573       .  S
C1084      C1193   1.565       .  S
C1084      C1203   1.570       .  S
C1085      C1163   1.567       .  S
C1085      C1173   1.558       .  S
C1085      C1206   1.574       .  S
C1086      C1143   1.570       .  S
C1086      C1153   1.564       .  S
C1086      C1166   1.574       .  S
C1087      C1133   1.561       .  S
C1087      C1146   1.574       .  S
C1087      C1186   1.573       .  S
C1088      C1113   1.570       .  S
C1088      C1123   1.557       .  S
C1088      C1196   1.561       .  S
C1089      C1103   1.556       .  S
C1089      C1116   1.571       .  S
C1089      C1136   1.561       .  S
C1090      C1093   1.582       .  S
C1090      C1106   1.564       .  S
C1090      C1156   1.563       .  S
C1091      C1096   1.576       .  S
C1091      C1126   1.562       .  S
C1091      C1176   1.562       .  S
C1092      C1093   1.415       .  A
C1092      C1097   1.387       .  A
C1092      H1098   1.075       .  S
C1093      C1094   1.417       .  A
C1094      C1095   1.409       .  A
C1094      H1099   1.078       .  S
C1095      C1096   1.419       .  A
C1095      H1100   1.077       .  S
C1096      C1097   1.413       .  A
C1097      H1101   1.076       .  S
C1102      C1103   1.405       .  A
C1102      C1107   1.382       .  A
C1102      H1108   1.069       .  S
C1103      C1104   1.414       .  A
C1104      C1105   1.405       .  A
C1104      H1109   1.083       .  S
C1105      C1106   1.417       .  A
C1105      H1110   1.083       .  S
C1106      C1107   1.407       .  A
C1107      H1111   1.067       .  S
C1112      C1113   1.409       .  A
C1112      C1117   1.385       .  A
C1112      H1118   1.082       .  S
C1113      C1114   1.418       .  A
C1114      C1115   1.421       .  A
C1114      H1119   1.079       .  S
C1115      C1116   1.418       .  A
C1115      H1120   1.079       .  S
C1116      C1117   1.411       .  A
C1117      H1121   1.080       .  S
C1122      C1123   1.414       .  A
C1122      C1127   1.402       .  A
C1122      H1128   1.083       .  S
C1123      C1124   1.409       .  A
C1124      C1125   1.387       .  A
C1124      H1129   1.069       .  S
C1125      C1126   1.407       .  A
C1125      H1130   1.072       .  S
C1126      C1127   1.415       .  A
C1127      H1131   1.083       .  S
C1132      C1133   1.417       .  A
C1132      C1137   1.412       .  A
C1132      H1138   1.083       .  S
C1133      C1134   1.410       .  A
C1134      C1135   1.388       .  A
C1134      H1139   1.062       .  S
C1135      C1136   1.404       .  A
C1135      H1140   1.081       .  S
C1136      C1137   1.414       .  A
C1137      H1141   1.083       .  S
C1142      C1143   1.412       .  A
C1142      C1147   1.396       .  A
C1142      H1148   1.082       .  S
C1143      C1144   1.417       .  A
C1144      C1145   1.411       .  A
C1144      H1149   1.078       .  S
C1145      C1146   1.418       .  A
C1145      H1150   1.078       .  S
C1146      C1147   1.412       .  A
C1147      H1151   1.082       .  S
C1152      C1153   1.418       .  A
C1152      C1157   1.415       .  A
C1152      H1158   1.083       .  S
C1153      C1154   1.408       .  A
C1154      C1155   1.386       .  A
C1154      H1159   1.063       .  S
C1155      C1156   1.403       .  A
C1155      H1160   1.070       .  S
C1156      C1157   1.417       .  A
C1157      H1161   1.083       .  S
C1162      C1163   1.404       .  A
C1162      C1167   1.392       .  A
C1162      H1168   1.072       .  S
C1163      C1164   1.419       .  A
C1164      C1165   1.405       .  A
C1164      H1169   1.082       .  S
C1165      C1166   1.415       .  A
C1165      H1170   1.082       .  S
C1166      C1167   1.412       .  A
C1167      H1171   1.073       .  S
C1172      C1173   1.416       .  A
C1172      C1177   1.417       .  A
C1172      H1178   1.082       .  S
C1173      C1174   1.404       .  A
C1174      C1175   1.376       .  A
C1174      H1179   1.074       .  S
C1175      C1176   1.408       .  A
C1175      H1180   1.071       .  S
C1176      C1177   1.418       .  A
C1177      H1181   1.083       .  S
C1182      C1183   1.408       .  A
C1182      C1187   1.386       .  A
C1182      H1188   1.070       .  S
C1183      C1184   1.417       .  A
C1184      C1185   1.410       .  A
C1184      H1189   1.082       .  S
C1185      C1186   1.418       .  A
C1185      H1190   1.082       .  S
C1186      C1187   1.406       .  A
C1187      H1191   1.073       .  S
C1192      C1193   1.410       .  A
C1192      C1197   1.388       .  A
C1192      H1198   1.061       .  S
C1193      C1194   1.418       .  A
C1194      C1195   1.413       .  A
C1194      H1199   1.083       .  S
C1195      C1196   1.413       .  A
C1195      H1200   1.083       .  S
C1196      C1197   1.405       .  A
C1197      H1201   1.081       .  S
C1202      C1203   1.406       .  A
C1202      C1207   1.388       .  A
C1202      H1208   1.081       .  S
C1203      C1204   1.421       .  A
C1204      C1205   1.414       .  A
C1204      H1209   1.080       .  S
C1205      C1206   1.418       .  A
C1205      H1210   1.080       .  S
C1206      C1207   1.415       .  A
C1207      H1211   1.073       .  S
N1212      N1213   1.320       .  A
N1212      N1218   1.316       .  A
N1213      C1220   1.357       .  A
N1214      N1216   1.314       .  A
N1214      N1215   1.317       .  A
N1215      C1221   1.354       .  A
N1216      N1217   1.321       .  A
N1217      C1221   1.354       .  A
N1218      N1219   1.322       .  A
N1218     Mn1230   2.197   1_655  S
N1219      C1220   1.353       .  A
C1220      C1262   1.524       .  S
C1221      C1260   1.527       .  S
N1222      N1228   1.314       .  A
N1222      N1223   1.323       .  A
N1222     Mn1252   2.197       .  S
N1223      C1231   1.355       .  A
N1224      N1225   1.319       .  A
N1224      N1226   1.315       .  A
N1225      C1232   1.353       .  A
N1226      N1227   1.319       .  A
N1227      C1232   1.355       .  A
N1228      N1229   1.314       .  A
N1229      C1231   1.351       .  A
C1231      C1259   1.523       .  S
C1232      C1263   1.525       .  S
N1233      N1234   1.321       .  A
N1233      N1239   1.314       .  A
N1234      C1242   1.355       .  A
N1235      N1237   1.316       .  A
N1235      N1236   1.322       .  A
N1236      C1243   1.353       .  A
N1237      N1238   1.319       .  A
N1237     Mn1241   2.212   1_656  S
N1238      C1243   1.356       .  A
N1239      N1240   1.317       .  A
N1240      C1242   1.352       .  A
C1242      C1257   1.521       .  S
C1243      C1261   1.523       .  S
N1244      N1245   1.319       .  A
N1244      N1250   1.314       .  A
N1245      C1255   1.356       .  A
N1246      N1247   1.315       .  A
N1246      N1248   1.314       .  A
N1246     Mn1253   2.203       .  S
N1247      C1256   1.353       .  A
N1248      N1249   1.324       .  A
N1249      C1256   1.356       .  A
N1250      N1251   1.319       .  A
N1251      C1255   1.352       .  A
C1255      C1264   1.528       .  S
C1256      C1258   1.528       .  S
C1257      C1356   1.573       .  S
C1257      C1366   1.565       .  S
C1257      C1376   1.570       .  S
C1258      C1336   1.567       .  S
C1258      C1346   1.558       .  S
C1258      C1379   1.574       .  S
C1259      C1316   1.570       .  S
C1259      C1326   1.564       .  S
C1259      C1339   1.574       .  S
C1260      C1306   1.561       .  S
C1260      C1319   1.574       .  S
C1260      C1359   1.573       .  S
C1261      C1286   1.570       .  S
C1261      C1296   1.557       .  S
C1261      C1369   1.561       .  S
C1262      C1276   1.556       .  S
C1262      C1289   1.571       .  S
C1262      C1309   1.561       .  S
C1263      C1266   1.582       .  S
C1263      C1279   1.564       .  S
C1263      C1329   1.563       .  S
C1264      C1269   1.576       .  S
C1264      C1299   1.562       .  S
C1264      C1349   1.562       .  S
C1265      C1266   1.415       .  A
C1265      C1270   1.387       .  A
C1265      H1271   1.075       .  S
C1266      C1267   1.417       .  A
C1267      C1268   1.409       .  A
C1267      H1272   1.078       .  S
C1268      C1269   1.419       .  A
C1268      H1273   1.077       .  S
C1269      C1270   1.413       .  A
C1270      H1274   1.076       .  S
C1275      C1276   1.405       .  A
C1275      C1280   1.382       .  A
C1275      H1281   1.069       .  S
C1276      C1277   1.414       .  A
C1277      C1278   1.405       .  A
C1277      H1282   1.083       .  S
C1278      C1279   1.417       .  A
C1278      H1283   1.083       .  S
C1279      C1280   1.407       .  A
C1280      H1284   1.067       .  S
C1285      C1286   1.409       .  A
C1285      C1290   1.385       .  A
C1285      H1291   1.082       .  S
C1286      C1287   1.418       .  A
C1287      C1288   1.421       .  A
C1287      H1292   1.079       .  S
C1288      C1289   1.418       .  A
C1288      H1293   1.079       .  S
C1289      C1290   1.411       .  A
C1290      H1294   1.080       .  S
C1295      C1296   1.414       .  A
C1295      C1300   1.402       .  A
C1295      H1301   1.083       .  S
C1296      C1297   1.409       .  A
C1297      C1298   1.387       .  A
C1297      H1302   1.069       .  S
C1298      C1299   1.407       .  A
C1298      H1303   1.072       .  S
C1299      C1300   1.415       .  A
C1300      H1304   1.083       .  S
C1305      C1306   1.417       .  A
C1305      C1310   1.412       .  A
C1305      H1311   1.083       .  S
C1306      C1307   1.410       .  A
C1307      C1308   1.388       .  A
C1307      H1312   1.062       .  S
C1308      C1309   1.404       .  A
C1308      H1313   1.081       .  S
C1309      C1310   1.414       .  A
C1310      H1314   1.083       .  S
C1315      C1316   1.412       .  A
C1315      C1320   1.396       .  A
C1315      H1321   1.082       .  S
C1316      C1317   1.417       .  A
C1317      C1318   1.411       .  A
C1317      H1322   1.078       .  S
C1318      C1319   1.418       .  A
C1318      H1323   1.078       .  S
C1319      C1320   1.412       .  A
C1320      H1324   1.082       .  S
C1325      C1326   1.418       .  A
C1325      C1330   1.415       .  A
C1325      H1331   1.083       .  S
C1326      C1327   1.408       .  A
C1327      C1328   1.386       .  A
C1327      H1332   1.063       .  S
C1328      C1329   1.403       .  A
C1328      H1333   1.070       .  S
C1329      C1330   1.417       .  A
C1330      H1334   1.083       .  S
C1335      C1336   1.404       .  A
C1335      C1340   1.392       .  A
C1335      H1341   1.072       .  S
C1336      C1337   1.419       .  A
C1337      C1338   1.405       .  A
C1337      H1342   1.082       .  S
C1338      C1339   1.415       .  A
C1338      H1343   1.082       .  S
C1339      C1340   1.412       .  A
C1340      H1344   1.073       .  S
C1345      C1346   1.416       .  A
C1345      C1350   1.417       .  A
C1345      H1351   1.082       .  S
C1346      C1347   1.404       .  A
C1347      C1348   1.376       .  A
C1347      H1352   1.074       .  S
C1348      C1349   1.408       .  A
C1348      H1353   1.071       .  S
C1349      C1350   1.418       .  A
C1350      H1354   1.083       .  S
C1355      C1356   1.408       .  A
C1355      C1360   1.386       .  A
C1355      H1361   1.070       .  S
C1356      C1357   1.417       .  A
C1357      C1358   1.410       .  A
C1357      H1362   1.082       .  S
C1358      C1359   1.418       .  A
C1358      H1363   1.082       .  S
C1359      C1360   1.406       .  A
C1360      H1364   1.073       .  S
C1365      C1366   1.410       .  A
C1365      C1370   1.388       .  A
C1365      H1371   1.061       .  S
C1366      C1367   1.418       .  A
C1367      C1368   1.413       .  A
C1367      H1372   1.083       .  S
C1368      C1369   1.413       .  A
C1368      H1373   1.083       .  S
C1369      C1370   1.405       .  A
C1370      H1374   1.081       .  S
C1375      C1376   1.406       .  A
C1375      C1380   1.388       .  A
C1375      H1381   1.081       .  S
C1376      C1377   1.421       .  A
C1377      C1378   1.414       .  A
C1377      H1382   1.080       .  S
C1378      C1379   1.418       .  A
C1378      H1383   1.080       .  S
C1379      C1380   1.415       .  A
C1380      H1384   1.073       .  S
