geometry optimzed in LAMMPS
_audit_creation_date              2020-12-01 
_audit_creation_method            'lammps2cif' 
_symmetry_space_group_name_H-M    'P1' 
_symmetry_Int_Tables_number       1 
_symmetry_cell_setting            triclinic 
loop_ 
_symmetry_equiv_pos_as_xyz 
  x,y,z 
_cell_length_a                    43.65250512 
_cell_length_b                    44.806237533930926 
_cell_length_c                    30.897169863889914 
_cell_angle_alpha                 90.76110522326621 
_cell_angle_beta                  90.02176391368599 
_cell_angle_gamma                 120.95365638691965 
loop_ 
_atom_site_label 
_atom_site_type_symbol 
_atom_site_fract_x 
_atom_site_fract_y 
_atom_site_fract_z 
_atom_site_charge 
C1          C  0.54829645  0.87602549  0.99646216     0.79900
N2          N  0.52578058  0.87658881  0.46409655    -0.78400
C3          C  0.51811665  0.90239707  0.46469906     0.82400
N4          N  0.52372898  0.92131695  0.50103664    -0.78300
C5          C  0.54233797  0.91870051  0.03547813     0.82500
N6          N  0.55201363  0.89419603  0.03424864    -0.80100
C7          C  0.28739836  0.86372957  0.99884609     0.79900
N8          N  0.30241250  0.88201069  0.03608711    -0.78400
C9          C  0.33139787  0.91482164  0.03519883     0.82400
N10         N  0.34585408  0.92811115  0.49764891    -0.78300
C11         C  0.33008851  0.91013647  0.46033454     0.82500
N12         N  0.30031903  0.87789639  0.46264191    -0.80100
O13         O  0.47413023  0.99031276  0.34391866    -0.80400
O14         O  0.54840970  0.05848030  0.18645675    -0.80500
O15         O  0.51022308  0.97958020  0.21116594    -0.80500
O16         O  0.55785894  0.06299273  0.28486072    -0.80400
O17         O  0.49277399  0.99815333  0.15791507    -0.80500
O18         O  0.52208026  0.05905701  0.33843263    -0.80500
O19         O  0.57299700  0.10985176  0.21913296    -0.80400
O20         O  0.50102733  0.97527091  0.29591405    -0.80500
C21         C  0.49100830  0.97492257  0.33405270     1.09200
C22         C  0.57437671  0.09042704  0.18990263     1.09100
C23         C  0.50886038  0.98334280  0.17130238     1.09300
C24         C  0.55220749  0.06475129  0.32500162     1.09100
O25         O  0.47021320  0.07028372  0.29350142    -0.80400
O26         O  0.44055350  0.01319043  0.18901041    -0.80500
O27         O  0.42663658  0.95331416  0.28780093    -0.80500
O28         O  0.50490038  0.08916795  0.19700153    -0.80400
O29         O  0.49637082  0.05718814  0.13848590    -0.80500
O30         O  0.42270406  0.99969370  0.29541352    -0.80500
O31         O  0.52698616  0.10439824  0.28382877    -0.80400
O32         O  0.43536222  0.96209601  0.19909433    -0.80500
Co33       Co  0.47255537  0.02985362  0.31388766     1.51500
Co34       Co  0.49306312  0.03647145  0.19211780     1.51700
Co35       Co  0.46985031  0.97102328  0.24829081     1.51600
Co36       Co  0.53001294  0.07184899  0.24131673     1.51500
O37         O  0.48843141  0.02321740  0.25439136    -1.42400
C38         C  0.49816501  0.09947421  0.29998233     1.09200
C39         C  0.42373174  0.98050356  0.18273551     1.09300
C40         C  0.41041629  0.96797368  0.30296798     1.09200
C41         C  0.49919883  0.08424031  0.15539277     1.09200
C42         C  0.51718878  0.23140516  0.99401867     0.79900
N43         N  0.52904719  0.21978975  0.45269498    -0.78400
C44         C  0.51730757  0.18524427  0.45011322     0.82400
N45         N  0.49829522  0.16368067  0.98426841    -0.78300
C46         C  0.50231329  0.17747840  0.02487924     0.82500
N47         N  0.51162091  0.21146955  0.02961896    -0.80100
C48         C  0.70853662  0.17877969  0.99515185     0.79900
N49         N  0.68796228  0.16073768  0.45785459    -0.78400
C50         C  0.65597949  0.13069103  0.46266842     0.82400
N51         N  0.64366514  0.11993814  0.50329014    -0.78300
C52         C  0.66275184  0.13739485  0.03970096     0.82500
N53         N  0.69475462  0.16711002  0.03514143    -0.80100
O54         O  0.05948391  0.54874008  0.32007473    -0.80400
O55         O  0.00295751  0.50336160  0.14771658    -0.80500
O56         O  0.07295574  0.57149928  0.21813893    -0.80500
O57         O  0.98489091  0.52569900  0.28480264    -0.80400
O58         O  0.07259145  0.53831293  0.16452158    -0.80500
O59         O  0.99338467  0.49651464  0.33381572    -0.80500
O60         O  0.98715213  0.52769846  0.19886592    -0.80400
O61         O  0.11337663  0.57806676  0.29034321    -0.80500
C62         C  0.09142620  0.57585284  0.31917485     1.09200
C63         C  0.99155725  0.52340169  0.15957448     1.09100
C64         C  0.07979421  0.56792035  0.17905556     1.09300
C65         C  0.98330578  0.51727493  0.32356041     1.09100
O66         O  0.00311156  0.44543036  0.29110442    -0.80400
O67         O  0.06797577  0.47923460  0.20847338    -0.80500
O68         O  0.08782694  0.50985701  0.30304757    -0.80500
O69         O  0.95441596  0.45368728  0.19123454    -0.80400
O70         O  0.99688444  0.44184194  0.18929440    -0.80500
O71         O  0.04802454  0.48864809  0.35520676    -0.80500
O72         O  0.95546408  0.44968823  0.28043847    -0.80400
O73         O  0.10890593  0.53280781  0.22189382    -0.80500
Co74       Co  0.03270869  0.49591604  0.30137932     1.51500
Co75       Co  0.03467235  0.49022898  0.18081150     1.51700
Co76       Co  0.07530779  0.53939696  0.26047006     1.51600
Co77       Co  0.97361852  0.49035699  0.23938328     1.51500
O78         O  0.02549023  0.50258936  0.23998741    -1.42400
C79         C  0.96977863  0.43304752  0.29512949     1.09200
C80         C  0.09997074  0.50332443  0.20508584     1.09300
C81         C  0.07863321  0.49700880  0.34157639     1.09200
C82         C  0.96646689  0.43497521  0.17706562     1.09200
C83         C  0.22177320  0.50533953  0.01245681     0.79900
N84         N  0.20547628  0.50598366  0.47365369    -0.78400
C85         C  0.17100906  0.49845533  0.47672657     0.82400
N86         N  0.15350305  0.49133021  0.01839855    -0.78300
C87         C  0.17363092  0.49843339  0.05463609     0.82500
N88         N  0.20762116  0.50547756  0.05156281    -0.80100
C89         C  0.84925805  0.30471000  0.98606795     0.79900
N90         N  0.86574270  0.32237051  0.02310743    -0.78400
C91         C  0.89852256  0.35157437  0.02247128     0.82400
N92         N  0.91361974  0.36397896  0.47870882    -0.78300
C93         C  0.89635058  0.34837036  0.44088619     0.82500
N94         N  0.86229711  0.32053537  0.44201885    -0.80100
C95         C  0.89133942  0.57631069  0.99193785     0.79900
N96         N  0.90919904  0.57752494  0.02897909    -0.78400
C97         C  0.93519890  0.56940953  0.02756622     0.82400
N98         N  0.94228011  0.55922254  0.98975145    -0.78300
C99         C  0.94020106  0.57559578  0.45712513     0.82500
N100        N  0.91324645  0.58208329  0.45974469    -0.80100
C101        C  0.17334334  0.71847402  0.00314856     0.79900
N102        N  0.15632622  0.70109659  0.46929249    -0.78400
C103        C  0.13325744  0.66630660  0.46910053     0.82400
N104        N  0.12368780  0.64925259  0.50719701    -0.78300
C105        C  0.13866418  0.66707535  0.04278757     0.82500
N106        N  0.16248313  0.70198073  0.04194298    -0.80100
O107        O  0.59083579  0.55501318  0.15917558    -0.80400
O108        O  0.50311626  0.53314548  0.28980951    -0.80500
O109        O  0.60131187  0.50974382  0.27344994    -0.80500
O110        O  0.50881602  0.54250795  0.20895373    -0.80400
O111        O  0.54948193  0.50494306  0.28779541    -0.80500
O112        O  0.54434087  0.57672231  0.15872955    -0.80500
O113        O  0.48839657  0.57168418  0.27335515    -0.80400
O114        O  0.56235380  0.51572341  0.20788677    -0.80500
C115        C  0.57266013  0.52325318  0.16931558     1.09200
C116        C  0.48396821  0.54692543  0.29737111     1.09100
C117        C  0.57183543  0.49462487  0.29404178     1.09300
C118        C  0.51432716  0.55129650  0.16975299     1.09100
O119        O  0.59491931  0.64103080  0.20270049    -0.80400
O120        O  0.59757562  0.56180114  0.34404910    -0.80500
O121        O  0.63820894  0.56610308  0.21266434    -0.80500
O122        O  0.55662802  0.62169352  0.29285960    -0.80400
O123        O  0.55707545  0.58967309  0.34418031    -0.80500
O124        O  0.64271624  0.61677436  0.20534882    -0.80500
O125        O  0.53726151  0.61598515  0.21117189    -0.80400
O126        O  0.63641401  0.57941062  0.29375100    -0.80500
Co127      Co  0.59273572  0.59684163  0.18650084     1.51500
Co128      Co  0.55403504  0.55024118  0.30991446     1.51700
Co129      Co  0.59684351  0.54779746  0.25325911     1.51600
Co130      Co  0.53386190  0.58073747  0.25311269     1.51500
O131        O  0.57883441  0.58004605  0.24981310    -1.42400
C132        C  0.56619543  0.64100641  0.19672040     1.09200
C133        C  0.62975057  0.57605492  0.33332828     1.09300
C134        C  0.65523571  0.59715934  0.19891232     1.09200
C135        C  0.56047793  0.61791831  0.33220981     1.09200
C136        C  0.55718116  0.37646740  0.49313569     0.79900
N137        N  0.54640049  0.39186795  0.03625267    -0.78400
C138        C  0.55116178  0.42431296  0.03187384     0.82400
N139        N  0.55895093  0.43746018  0.48330908    -0.78300
C140        C  0.55814704  0.41897205  0.44791553     0.82500
N141        N  0.55759122  0.38879599  0.45298064    -0.80100
C142        C  0.36226319  0.51814731  0.50041652     0.79900
N143        N  0.38245754  0.52265794  0.03584509    -0.78400
C144        C  0.41375759  0.52281817  0.03103000     0.82400
N145        N  0.42383468  0.51766798  0.49221237    -0.78300
C146        C  0.40643983  0.51825126  0.45643973     0.82500
N147        N  0.37599881  0.51880258  0.46084715    -0.80100
C148        C  0.77733162  0.60103843  0.50942219     0.79900
N149        N  0.76180765  0.60283789  0.04406473    -0.78400
C150        C  0.73359682  0.60697260  0.04902643     0.82400
N151        N  0.71734832  0.60434988  0.51786617    -0.78300
C152        C  0.72792751  0.60141436  0.47746432     0.82500
N153        N  0.75840171  0.59997181  0.47330120    -0.80100
C154        C  0.56104038  0.75203255  0.50699803     0.79900
N155        N  0.57238597  0.74747735  0.04218290    -0.78400
C156        C  0.57071415  0.71667495  0.04700966     0.82400
N157        N  0.57377976  0.69878405  0.51244005    -0.78300
C158        C  0.56981454  0.70923497  0.47282186     0.82500
N159        N  0.56345823  0.73603304  0.47019836    -0.80100
C160        C  0.45933998  0.53536581  0.33452153    -0.05800
C161        C  0.46171544  0.51378594  0.36527344    -0.33200
C162        C  0.44374086  0.50706570  0.40458806     0.36000
C163        C  0.42222827  0.52135335  0.41339012    -0.06100
C164        C  0.41797948  0.54109479  0.38164191    -0.33100
C165        C  0.43653272  0.54840251  0.34257930     0.36000
H166        H  0.47893886  0.50332997  0.35987769     0.16300
O167        O  0.44732286  0.48643404  0.43414903    -0.60600
H168        H  0.40161004  0.55239536  0.38792114     0.16300
O169        O  0.43361469  0.56979876  0.31366954    -0.60700
H170        H  0.41005370  0.55513822  0.29929665     0.43300
H171        H  0.47140943  0.50127421  0.44722104     0.43300
C172        C  0.43621927  0.52423462  0.06880030    -0.05800
C173        C  0.46870642  0.52554760  0.06057484    -0.33200
C174        C  0.49303316  0.53146784  0.09387481     0.36000
C175        C  0.48526659  0.53572654  0.13685187    -0.06100
C176        C  0.45174475  0.53156266  0.14599648    -0.33100
C177        C  0.42732265  0.52590664  0.11245641     0.36000
H178        H  0.47625854  0.52336126  0.02783386     0.16300
O179        O  0.52478364  0.53366331  0.08397075    -0.60600
H180        H  0.44539594  0.53500185  0.17890234     0.16300
O181        O  0.39580053  0.52392312  0.12275159    -0.60700
H182        H  0.37850120  0.49880068  0.12691049     0.43300
H183        H  0.54033947  0.55745674  0.07272750     0.43300
C184        C  0.56699730  0.64512784  0.36506831    -0.05800
C185        C  0.55030903  0.66474170  0.36120579    -0.33200
C186        C  0.55180972  0.68666878  0.39527205     0.36000
C187        C  0.57082621  0.68980344  0.43374166    -0.06100
C188        C  0.58877171  0.67126683  0.43649834    -0.33100
C189        C  0.58696415  0.64921955  0.40282511     0.36000
H190        H  0.53445102  0.66165031  0.33266024     0.16300
O191        O  0.53307908  0.70341941  0.39134902    -0.60600
H192        H  0.60378933  0.67324767  0.46542578     0.16300
O193        O  0.60421698  0.63110429  0.40767826    -0.60700
H194        H  0.62756082  0.64530752  0.39324082     0.43300
H195        H  0.50962494  0.68779653  0.40487650     0.43300
C196        C  0.56475183  0.66467360  0.16479917    -0.05800
C197        C  0.53573138  0.65055606  0.13563358    -0.33200
C198        C  0.53685911  0.66828798  0.09828292     0.36000
C199        C  0.56680772  0.70122113  0.09002213    -0.06100
C200        C  0.59448532  0.71688262  0.12092694    -0.33100
C201        C  0.59377092  0.69863090  0.15800977     0.36000
H202        H  0.51321101  0.62442073  0.13991737     0.16300
O203        O  0.50948590  0.65220419  0.06861197    -0.60600
H204        H  0.61764614  0.74228663  0.11495868     0.16300
O205        O  0.62226254  0.71348014  0.18617804    -0.60700
H206        H  0.61464419  0.72271446  0.21057879     0.43300
H207        H  0.49483262  0.66306903  0.07300617     0.43300
C208        C  0.70456552  0.59766935  0.43932353    -0.05800
C209        C  0.71558099  0.59827427  0.39617756    -0.33200
C210        C  0.69247670  0.59267358  0.36073306     0.36000
C211        C  0.65762059  0.58636622  0.36800373    -0.06100
C212        C  0.64723853  0.58649920  0.41089351    -0.33100
C213        C  0.66991010  0.59224071  0.44587590     0.36000
H214        H  0.74192510  0.60252234  0.38983569     0.16300
O215        O  0.70396729  0.59250004  0.31948040    -0.60600
H216        H  0.62063785  0.58131017  0.41788328     0.16300
O217        O  0.65676337  0.59082633  0.48659250    -0.60700
H218        H  0.66129052  0.61457025  0.49263928     0.43300
H219        H  0.69726527  0.56805192  0.31358726     0.43300
C220        C  0.68403237  0.60696314  0.16722066    -0.05800
C221        C  0.69902573  0.58586289  0.16259880    -0.33200
C222        C  0.71761302  0.58718753  0.12517837     0.36000
C223        C  0.72173363  0.61021460  0.09211832    -0.06100
C224        C  0.70964229  0.63338533  0.09822949    -0.33100
C225        C  0.69067315  0.63183386  0.13521641     0.36000
H226        H  0.69386309  0.56629786  0.18640691     0.16300
O227        O  0.72769571  0.56306126  0.11902343    -0.60600
H228        H  0.71281058  0.65121565  0.07284539     0.16300
O229        O  0.67604732  0.65255318  0.13762289    -0.60700
H230        H  0.65387253  0.64036524  0.11982289     0.43300
H231        H  0.75059948  0.57250204  0.13505567     0.43300
C232        C  0.56433096  0.46804025  0.32733111    -0.05800
C233        C  0.59080132  0.46045473  0.33866794    -0.33200
C234        C  0.58796634  0.44242987  0.37670929     0.36000
C235        C  0.55876288  0.43232940  0.40439150    -0.06100
C236        C  0.53116078  0.43760579  0.39170420    -0.33100
C237        C  0.53322841  0.45437756  0.35298904     0.36000
H238        H  0.61469058  0.47013488  0.31936654     0.16300
O239        O  0.61484271  0.43657734  0.38778886    -0.60600
H240        H  0.50818167  0.42927741  0.41236779     0.16300
O241        O  0.50546390  0.45891011  0.34198549    -0.60700
H242        H  0.48951243  0.43850795  0.32332402     0.43300
H243        H  0.63206865  0.45735567  0.40506642     0.43300
C244        C  0.56730452  0.49631995  0.13628339    -0.05800
C245        C  0.58693819  0.50758737  0.09776314    -0.33200
C246        C  0.58330456  0.48405522  0.06526873     0.36000
C247        C  0.55863939  0.44817628  0.06960365    -0.06100
C248        C  0.54031745  0.43634234  0.10894944    -0.33100
C249        C  0.54469845  0.46012888  0.14232702     0.36000
H250        H  0.60574190  0.53499144  0.09267997     0.16300
O251        O  0.60434040  0.49653864  0.02924638    -0.60600
H252        H  0.52189133  0.40878472  0.11338876     0.16300
O253        O  0.52690909  0.44770735  0.18053500    -0.60700
H254        H  0.50250627  0.44325491  0.17510983     0.43300
H255        H  0.62659274  0.49680777  0.03669194     0.43300
C256        C  0.86172463  0.58338122  0.99370116    -0.05800
C257        C  0.85007843  0.58759344  0.03426156    -0.33200
C258        C  0.82128101  0.59255491  0.03810549     0.36000
C259        C  0.81053698  0.59927837  0.50675937    -0.06100
C260        C  0.82788748  0.60387914  0.46706381    -0.33100
C261        C  0.85901384  0.60209919  0.46401972     0.36000
H262        H  0.86301341  0.58662476  0.06369261     0.16300
O263        O  0.81113681  0.59591130  0.07902960    -0.60600
H264        H  0.81746258  0.60906637  0.43814435     0.16300
O265        O  0.87555703  0.60793155  0.42468516    -0.60700
H266        H  0.86105591  0.58608371  0.40767933     0.43300
H267        H  0.82643560  0.62096526  0.08670928     0.43300
C268        C  0.25888172  0.51155340  0.01023075    -0.05800
C269        C  0.27430472  0.51128033  0.46839093    -0.33200
C270        C  0.30675627  0.51228971  0.46545099     0.36000
C271        C  0.32804867  0.51808452  0.50293409    -0.06100
C272        C  0.31275712  0.51778821  0.04424753    -0.33100
C273        C  0.27842459  0.51303269  0.04778807     0.36000
H274        H  0.25836900  0.50576523  0.43923397     0.16300
O275        O  0.31658276  0.50635453  0.42558489    -0.60600
H276        H  0.32673093  0.51835345  0.07351444     0.16300
O277        O  0.26421729  0.50931107  0.08832104    -0.60700
H278        H  0.25199701  0.48402468  0.09411086     0.43300
H279        H  0.32798109  0.52914409  0.41095518     0.43300
C280        C  0.97968592  0.53955610  0.12791785    -0.05800
C281        C  0.94747423  0.53882723  0.13527122    -0.33200
C282        C  0.93370361  0.55155000  0.10453618     0.36000
C283        C  0.95272825  0.56594521  0.06625331    -0.06100
C284        C  0.98646448  0.56937598  0.06090310    -0.33100
C285        C  0.99957010  0.55559874  0.09088426     0.36000
H286        H  0.93192055  0.52656327  0.16389910     0.16300
O287        O  0.90019429  0.54646300  0.11027177    -0.60600
H288        H  0.00166451  0.58066433  0.03173928     0.16300
O289        O  0.03166870  0.55784042  0.08359478    -0.60700
H290        H  0.02584530  0.53705913  0.06560098     0.43300
H291        H  0.90416147  0.56845217  0.12357131     0.43300
C292        C  0.96974407  0.53148738  0.35600058    -0.05800
C293        C  0.97828026  0.56621666  0.35301104    -0.33200
C294        C  0.96673835  0.58071694  0.38460989     0.36000
C295        C  0.94574678  0.56004546  0.41871656    -0.06100
C296        C  0.93629694  0.52510409  0.42095470    -0.33100
C297        C  0.94825092  0.51074789  0.38991331     0.36000
H298        H  0.99521043  0.58248569  0.32721639     0.16300
O299        O  0.97843210  0.61557261  0.38384535    -0.60600
H300        H  0.92089515  0.50937545  0.44800619     0.16300
O301        O  0.93940872  0.47672881  0.39346165    -0.60700
H302        H  0.91655261  0.46293964  0.37731198     0.43300
H303        H  0.95795440  0.61694262  0.37248297     0.43300
C304        C  0.94847599  0.41021759  0.14018071    -0.05800
C305        C  0.91138368  0.39398176  0.13422353    -0.33200
C306        C  0.89467179  0.37398175  0.09673716     0.36000
C307        C  0.91522063  0.37088574  0.06355679    -0.06100
C308        C  0.95221883  0.38695094  0.06960303    -0.33100
C309        C  0.96880149  0.40604790  0.10755595     0.36000
H310        H  0.89532470  0.39725974  0.15839468     0.16300
O311        O  0.85849873  0.35941470  0.09169056    -0.60600
H312        H  0.96848673  0.38486405  0.04464483     0.16300
O313        O  0.00529676  0.42261879  0.11091982    -0.60700
H314        H  0.01043371  0.40404392  0.11771186     0.43300
H315        H  0.84762466  0.33804570  0.10926042     0.43300
C316        C  0.91379499  0.36350851  0.39897744    -0.05800
C317        C  0.89431139  0.36735677  0.36555507    -0.33200
C318        C  0.91174012  0.38766084  0.32928590     0.36000
C319        C  0.94920809  0.40383158  0.32545184    -0.06100
C320        C  0.96798693  0.39691286  0.35692160    -0.33100
C321        C  0.95068905  0.37727138  0.39345934     0.36000
H322        H  0.86582211  0.35657442  0.36886841     0.16300
O323        O  0.89205082  0.39252884  0.29860126    -0.60600
H324        H  0.99672133  0.40883296  0.35498487     0.16300
O325        O  0.97048265  0.37300470  0.42456124    -0.60700
H326        H  0.96743919  0.34986810  0.41820643     0.43300
H327        H  0.88758204  0.41042756  0.31114294     0.43300
C328        C  0.12274700  0.49952157  0.17252861    -0.05800
C329        C  0.15593570  0.52852913  0.16158273    -0.33200
C330        C  0.17371051  0.52800709  0.12404174     0.36000
C331        C  0.15823895  0.49830944  0.09688266    -0.06100
C332        C  0.12609940  0.46885220  0.10864460    -0.33100
C333        C  0.10870213  0.46894319  0.14644844     0.36000
H334        H  0.16717182  0.55235801  0.18069337     0.16300
O335        O  0.20501365  0.55732871  0.11274193    -0.60600
H336        H  0.11403626  0.44582604  0.08790777     0.16300
O337        O  0.07674469  0.43963116  0.15584686    -0.60700
H338        H  0.08304558  0.42545515  0.17399482     0.43300
H339        H  0.19768852  0.57227740  0.09807876     0.43300
C340        C  0.10334966  0.49243364  0.37053428    -0.05800
C341        C  0.08904705  0.47003969  0.40591127    -0.33200
C342        C  0.11108744  0.47002941  0.43893135     0.36000
C343        C  0.14842374  0.49291746  0.43757220    -0.06100
C344        C  0.16312342  0.51305585  0.40032978    -0.33100
C345        C  0.14093890  0.51281643  0.36689386     0.36000
H346        H  0.06037825  0.45321374  0.40891636     0.16300
O347        O  0.09578698  0.44744795  0.47257995    -0.60600
H348        H  0.19174344  0.53055124  0.39823694     0.16300
O349        O  0.15629030  0.53463653  0.33263271    -0.60700
H350        H  0.15867422  0.52019324  0.30981494     0.43300
H351        H  0.08493180  0.45769412  0.49121115     0.43300
C352        C  0.09922050  0.59775788  0.14966742    -0.05800
C353        C  0.12134131  0.59543382  0.11843958    -0.33200
C354        C  0.13596523  0.61931770  0.08514644     0.36000
C355        C  0.12961156  0.64700377  0.08299583    -0.06100
C356        C  0.10934743  0.65087193  0.11552205    -0.33100
C357        C  0.09400314  0.62629409  0.14878872     0.36000
H358        H  0.12619979  0.57401244  0.11867362     0.16300
O359        O  0.15571529  0.61484182  0.05393072    -0.60600
H360        H  0.10351764  0.67157438  0.11354484     0.16300
O361        O  0.07152592  0.62869920  0.17766737    -0.60700
H362        H  0.08688242  0.64196075  0.20280070     0.43300
H363        H  0.13800667  0.59587184  0.03466250     0.43300
C364        C  0.12107983  0.64666137  0.42772170    -0.05800
C365        C  0.14521958  0.65476643  0.39348545    -0.33200
C366        C  0.13554654  0.63326217  0.35639465     0.36000
C367        C  0.10134122  0.60302218  0.35338115    -0.06100
C368        C  0.07642820  0.59686418  0.38622061    -0.33100
C369        C  0.08601306  0.61838250  0.42294787     0.36000
H370        H  0.17218255  0.67692010  0.39632853     0.16300
O371        O  0.16022896  0.64129358  0.32439239    -0.60600
H372        H  0.04958891  0.57443552  0.38449825     0.16300
O373        O  0.06114015  0.61100077  0.45458046    -0.60700
H374        H  0.04617398  0.62014522  0.44379337     0.43300
H375        H  0.15583550  0.65537407  0.30357387     0.43300
C376        C  0.74444866  0.21099329  0.99150547    -0.05800
C377        C  0.76618087  0.22424411  0.02870917    -0.33200
C378        C  0.79999243  0.25439635  0.02747408     0.36000
C379        C  0.81332480  0.27235068  0.98822215    -0.06100
C380        C  0.79465597  0.25376044  0.44664489    -0.33100
C381        C  0.76161818  0.22241376  0.44911914     0.36000
H382        H  0.75717018  0.21106792  0.05931263     0.16300
O383        O  0.82017104  0.26523254  0.06475720    -0.60600
H384        H  0.80940662  0.25976227  0.41667581     0.16300
O385        O  0.74926313  0.20084049  0.41337412    -0.60700
H386        H  0.75723031  0.18394434  0.41750019     0.43300
H387        H  0.80948463  0.27585439  0.08302022     0.43300
C388        C  0.52665808  0.26843667  0.99849610    -0.05800
C389        C  0.51495113  0.27973481  0.03425333    -0.33200
C390        C  0.52092853  0.31380985  0.03650551     0.36000
C391        C  0.55484534  0.34207331  0.49627858    -0.06100
C392        C  0.56387851  0.32911333  0.45978297    -0.33100
C393        C  0.55778908  0.29525182  0.45825898     0.36000
H394        H  0.49989218  0.26172277  0.05970701     0.16300
O395        O  0.50684519  0.32298533  0.07020269    -0.60600
H396        H  0.57502686  0.34503953  0.43141767     0.16300
O397        O  0.56665217  0.28414623  0.42133015    -0.60700
H398        H  0.54644824  0.27723015  0.40093320     0.43300
H399        H  0.52548441  0.33212958  0.09319543     0.43300
C400        C  0.60386714  0.10390785  0.15804714    -0.05800
C401        C  0.60804970  0.08019101  0.13214963    -0.33200
C402        C  0.62880240  0.09107511  0.09462173     0.36000
C403        C  0.64638139  0.12627725  0.08282380    -0.06100
C404        C  0.64487632  0.15048697  0.11063230    -0.33100
C405        C  0.62380677  0.13959532  0.14794989     0.36000
H406        H  0.59376429  0.05278720  0.13980139     0.16300
O407        O  0.63151097  0.06709459  0.06945002    -0.60600
H408        H  0.65819435  0.17767235  0.10193436     0.16300
O409        O  0.62037466  0.16367324  0.17191086    -0.60700
H410        H  0.64063328  0.17359123  0.19278436     0.43300
H411        H  0.60955724  0.05574529  0.05128379     0.43300
C412        C  0.58154857  0.07720007  0.35715870    -0.05800
C413        C  0.61488501  0.10677147  0.34865456    -0.33200
C414        C  0.64025855  0.12383697  0.38196757     0.36000
C415        C  0.63260118  0.11108246  0.42470439    -0.06100
C416        C  0.60009410  0.07994021  0.43206295    -0.33100
C417        C  0.57478096  0.06321823  0.39896345     0.36000
H418        H  0.62043574  0.11800746  0.31670691     0.16300
O419        O  0.67180160  0.15353758  0.37244783    -0.60600
H420        H  0.59342676  0.06891422  0.46408518     0.16300
O421        O  0.54278712  0.03390583  0.40828565    -0.60700
H422        H  0.54829198  0.01511604  0.41084091     0.43300
H423        H  0.66663416  0.17262341  0.37468790     0.43300
C424        C  0.49743474  0.15500484  0.06272865    -0.05800
C425        C  0.47618634  0.11882891  0.05684725    -0.33200
C426        C  0.47535459  0.09592621  0.08767022     0.36000
C427        C  0.49517453  0.10862598  0.12665797    -0.06100
C428        C  0.51450464  0.14485706  0.13429780    -0.33100
C429        C  0.51584651  0.16802779  0.10262948     0.36000
H430        H  0.46109548  0.10794039  0.02708517     0.16300
O431        O  0.45547500  0.06089930  0.07869465    -0.60600
H432        H  0.53032012  0.15532559  0.16363836     0.16300
O433        O  0.53743016  0.20316764  0.10970069    -0.60700
H434        H  0.52247581  0.21020151  0.12587894     0.43300
H435        H  0.46978496  0.05619929  0.05776733     0.43300
C436        C  0.49916870  0.12442018  0.33318289    -0.05800
C437        C  0.52965644  0.15802836  0.33711345    -0.33200
C438        C  0.53521127  0.17915232  0.37387605     0.36000
C439        C  0.51038524  0.16655151  0.40788147    -0.06100
C440        C  0.47906108  0.13390684  0.40285852    -0.33100
C441        C  0.47309897  0.11309775  0.36592922     0.36000
H442        H  0.55014796  0.16733566  0.31257643     0.16300
O443        O  0.56639011  0.21066797  0.37782841    -0.60600
H444        H  0.45939588  0.12396622  0.42840439     0.16300
O445        O  0.44248996  0.08095724  0.36347339    -0.60700
H446        H  0.44773861  0.06536249  0.38026842     0.43300
H447        H  0.56178941  0.22733046  0.36258702     0.43300
C448        C  0.20126688  0.75612380  0.00130524    -0.05800
C449        C  0.20727510  0.77832210  0.03701549    -0.33200
C450        C  0.23449732  0.81353089  0.03650236     0.36000
C451        C  0.25673943  0.82720842  0.99997451    -0.06100
C452        C  0.23752540  0.80955552  0.46544719    -0.33100
C453        C  0.20928670  0.77497871  0.46590436     0.36000
H454        H  0.19080609  0.76837992  0.06554227     0.16300
O455        O  0.23910466  0.83414219  0.07204025    -0.60600
H456        H  0.24699861  0.82179372  0.43439182     0.16300
O457        O  0.19531942  0.75849643  0.42691013    -0.60700
H458        H  0.17600907  0.76321739  0.42014871     0.43300
H459        H  0.22590706  0.84608204  0.06511107     0.43300
C460        C  0.39389897  0.96408398  0.15054051    -0.05800
C461        C  0.39066685  0.98447058  0.11862754    -0.33200
C462        C  0.36945946  0.96896703  0.08139570     0.36000
C463        C  0.35003254  0.93242858  0.07633944    -0.06100
C464        C  0.35045027  0.91212681  0.11034185    -0.33100
C465        C  0.37210885  0.92755227  0.14696003     0.36000
H466        H  0.40610566  0.01253484  0.12136256     0.16300
O467        O  0.36791768  0.98970385  0.05023682    -0.60600
H468        H  0.33541046  0.88398671  0.10756062     0.16300
O469        O  0.37309688  0.90644940  0.17798601    -0.60700
H470        H  0.35749581  0.90619032  0.20148367     0.43300
H471        H  0.38990836  0.99797993  0.03295071     0.43300
C472        C  0.34690992  0.92427161  0.41771036    -0.05800
C473        C  0.34862979  0.90217728  0.38626076    -0.33200
C474        C  0.36741007  0.91543812  0.34745899     0.36000
C475        C  0.38408413  0.95133642  0.33872365    -0.06100
C476        C  0.38063823  0.97298261  0.36941252    -0.33100
C477        C  0.36284745  0.95991270  0.40867193     0.36000
H478        H  0.33680780  0.87470402  0.39268023     0.16300
O479        O  0.37068278  0.89328147  0.31941387    -0.60600
H480        H  0.39360428  0.00073078  0.36425627     0.16300
O481        O  0.36218752  0.98247481  0.43859102    -0.60700
H482        H  0.34387089  0.98741394  0.42781172     0.43300
H483        H  0.35153550  0.88644031  0.29746122     0.43300
C484        C  0.54440002  0.83961028  0.50145167    -0.05800
C485        C  0.57556860  0.84435580  0.03080962    -0.33200
C486        C  0.58241636  0.81699353  0.03237130     0.36000
C487        C  0.55479025  0.78187153  0.50526468    -0.06100
C488        C  0.55364290  0.79594184  0.46529178    -0.33100
C489        C  0.54861995  0.82447060  0.46315168     0.38700
H490        H  0.58355290  0.86215060  0.05827117     0.16300
O491        O  0.60038614  0.81491665  0.06757037    -0.60600
H492        H  0.55693260  0.78503044  0.43539661     0.16300
O493        O  0.54816751  0.83738936  0.42332981    -0.60700
H494        H  0.57351378  0.85468376  0.41711491     0.43300
H495        H  0.58284048  0.80628641  0.09144804     0.43300
C496        C  0.54471834  0.93954065  0.07427197    -0.05800
C497        C  0.53616012  0.92462518  0.11537272    -0.33200
C498        C  0.52696275  0.94011872  0.14878514     0.36000
C499        C  0.52521849  0.97019036  0.14057461    -0.06100
C500        C  0.53738945  0.98687538  0.10105589    -0.33100
C501        C  0.54763742  0.97221205  0.06832589     0.36000
H502        H  0.53393916  0.89973727  0.12067628     0.16300
O503        O  0.51663955  0.92392613  0.18792914    -0.60600
H504        H  0.53772277  0.01079708  0.09482564     0.16300
O505        O  0.55894269  0.98922772  0.02965685    -0.60700
H506        H  0.53759356  0.98790530  0.01626600     0.43300
H507        H  0.53878389  0.93456700  0.20575105     0.43300
C508        C  0.50599183  0.91272028  0.42660542    -0.05800
C509        C  0.52853651  0.92576173  0.39094014    -0.33200
C510        C  0.52410779  0.94629841  0.36080623     0.36000
C511        C  0.49639703  0.95363467  0.36584897    -0.06100
C512        C  0.47262768  0.93885597  0.40036558    -0.33100
C513        C  0.47740537  0.91871002  0.43076086     0.36000
H514        H  0.55126745  0.92228377  0.38820890     0.16300
O515        O  0.54810321  0.96040764  0.32768452    -0.60600
H516        H  0.45056753  0.94326101  0.40414762     0.16300
O517        O  0.45453119  0.90554676  0.46515803    -0.60700
H518        H  0.46160933  0.92562818  0.48510845     0.43300
H519        H  0.56713882  0.98347179  0.33882457     0.43300
C520        C  0.53799225  0.86928603  0.50085448     0.79900
N521        N  0.53455183  0.88273376  0.96050645    -0.78400
C522        C  0.52377326  0.90630316  0.96281914     0.82400
N523        N  0.52793670  0.92371240  0.99999175    -0.78300
C524        C  0.53655113  0.91531092  0.53735123     0.82500
N525        N  0.54303273  0.88867465  0.53774191    -0.80100
C526        C  0.28587539  0.86375586  0.50161055     0.79900
N527        N  0.30224069  0.88197641  0.53836945    -0.78400
C528        C  0.33206159  0.91407789  0.53683959     0.82400
N529        N  0.34568537  0.92925145  0.99631675    -0.78300
C530        C  0.33119113  0.91109171  0.95870903     0.82500
N531        N  0.30232867  0.87833127  0.96036518    -0.80100
O532        O  0.47633894  0.99372740  0.84471127    -0.80400
O533        O  0.54701047  0.06176200  0.68492961    -0.80500
O534        O  0.51234679  0.98314582  0.71184102    -0.80500
O535        O  0.55898888  0.06623998  0.78516247    -0.80400
O536        O  0.49291063  0.00031770  0.65882160    -0.80500
O537        O  0.52310039  0.06260270  0.83842785    -0.80500
O538        O  0.57328722  0.11272604  0.71919580    -0.80400
O539        O  0.50487398  0.98063596  0.79696095    -0.80500
C540        C  0.49441771  0.97952476  0.83497542     1.09200
C541        C  0.57382842  0.09327562  0.68928394     1.09100
C542        C  0.50907691  0.98545592  0.67197737     1.09300
C543        C  0.55324787  0.06811989  0.82519422     1.09100
O544        O  0.46995111  0.07230756  0.79365524    -0.80400
O545        O  0.43894225  0.01198944  0.69239758    -0.80500
O546        O  0.42945859  0.95580495  0.78958051    -0.80500
O547        O  0.50476372  0.09121917  0.69882823    -0.80400
O548        O  0.49219552  0.05819335  0.64007300    -0.80500
O549        O  0.42401563  0.00148811  0.79522854    -0.80500
O550        O  0.52675268  0.10691915  0.78462119    -0.80400
O551        O  0.43689447  0.96220083  0.70122339    -0.80500
Co552      Co  0.47355508  0.03249275  0.81417125     1.51500
Co553      Co  0.49156946  0.03790784  0.69314317     1.51700
Co554      Co  0.47243087  0.97382429  0.74986700     1.51600
Co555      Co  0.53063506  0.07453087  0.74212042     1.51500
O556        O  0.48958247  0.02577297  0.75507665    -1.42400
C557        C  0.49748175  0.10191347  0.79967906     1.09200
C558        C  0.42380624  0.97944162  0.68532928     1.09300
C559        C  0.41225007  0.96992936  0.80312550     1.09200
C560        C  0.49751026  0.08609707  0.65763046     1.09200
C561        C  0.53307839  0.23592734  0.49191966     0.79900
N562        N  0.51357815  0.21702921  0.95372762    -0.78400
C563        C  0.50392255  0.18316495  0.94868547     0.82400
N564        N  0.50963783  0.16687643  0.48703451    -0.78300
C565        C  0.51393248  0.18234676  0.52645503     0.82500
N566        N  0.52555004  0.21695567  0.52882550    -0.80100
C567        C  0.70731872  0.17979603  0.49308546     0.79900
N568        N  0.68915757  0.16070366  0.95938861    -0.78400
C569        C  0.65672094  0.13099491  0.96352894     0.82400
N570        N  0.64401058  0.11963767  0.00389278    -0.78300
C571        C  0.66237777  0.13853667  0.53878308     0.82500
N572        N  0.69399461  0.16867375  0.53346087    -0.80100
O573        O  0.05891479  0.54432581  0.81976337    -0.80400
O574        O  0.00550773  0.50320816  0.64700254    -0.80500
O575        O  0.07461338  0.56835657  0.72069524    -0.80500
O576        O  0.98327723  0.51961167  0.78398521    -0.80400
O577        O  0.07535392  0.53737585  0.66519801    -0.80500
O578        O  0.99234464  0.49087201  0.83250743    -0.80500
O579        O  0.98679905  0.52374545  0.69946261    -0.80400
O580        O  0.11370823  0.57133562  0.79250642    -0.80500
C581        C  0.09172740  0.57007485  0.82051805     1.09200
C582        C  0.99427184  0.52307403  0.66034733     1.09100
C583        C  0.08213058  0.56639342  0.68136295     1.09300
C584        C  0.98031265  0.50996787  0.82221178     1.09100
O585        O  0.00345915  0.44089034  0.79070422    -0.80400
O586        O  0.06959272  0.47602042  0.70441281    -0.80500
O587        O  0.08608886  0.50281672  0.80286244    -0.80500
O588        O  0.95575607  0.45030474  0.68852925    -0.80400
O589        O  0.99895236  0.43962061  0.68330528    -0.80500
O590        O  0.04651490  0.48442498  0.85523644    -0.80500
O591        O  0.95509913  0.44351804  0.77865441    -0.80400
O592        O  0.10973114  0.52885903  0.72283934    -0.80500
Co593      Co  0.03238122  0.49155923  0.80082839     1.51500
Co594      Co  0.03670264  0.48857932  0.67860092     1.51700
Co595      Co  0.07543942  0.53417989  0.76129531     1.51600
Co596      Co  0.97352405  0.48526882  0.73809530     1.51500
O597        O  0.02585587  0.49824437  0.73887761    -1.42400
C598        C  0.97006863  0.42794258  0.79506927     1.09200
C599        C  0.10173739  0.50029862  0.70416073     1.09300
C600        C  0.07665177  0.49118006  0.84188333     1.09200
C601        C  0.96817873  0.43251761  0.67239463     1.09200
C602        C  0.22574648  0.51188317  0.51021010     0.79900
N603        N  0.20138998  0.49886801  0.97582567    -0.78400
C604        C  0.16699314  0.49163960  0.97876539     0.82400
N605        N  0.15718565  0.49701798  0.51660404    -0.78300
C606        C  0.17737659  0.50356091  0.55282296     0.82500
N607        N  0.21138327  0.51088845  0.54943439    -0.80100
C608        C  0.84568109  0.30811916  0.48061463     0.79900
N609        N  0.86328011  0.32440882  0.51784583    -0.78400
C610        C  0.89703527  0.35224999  0.51728923     0.82400
N611        N  0.91527071  0.36328421  0.98384433    -0.78300
C612        C  0.89900660  0.34640412  0.94605542     0.82500
N613        N  0.86580584  0.31724983  0.94741273    -0.80100
C614        C  0.90471494  0.59046817  0.49857534     0.79900
N615        N  0.92271504  0.59070568  0.53516130    -0.78400
C616        C  0.95006572  0.58430420  0.53213509     0.82400
N617        N  0.95813853  0.57678533  0.49298013    -0.78300
C618        C  0.92444540  0.55714311  0.95334470     0.82500
N619        N  0.89894250  0.56570949  0.95411486    -0.80100
C620        C  0.16940615  0.71936260  0.50697789     0.79900
N621        N  0.16012145  0.69961612  0.96571444    -0.78400
C622        C  0.13609357  0.66496242  0.96660128     0.82400
N623        N  0.12586258  0.64900077  0.00515058    -0.78300
C624        C  0.13644578  0.66680394  0.54538087     0.82500
N625        N  0.15940918  0.70194543  0.54526630    -0.80100
O626        O  0.59053779  0.55089155  0.65936563    -0.80400
O627        O  0.49784405  0.52935614  0.78683607    -0.80500
O628        O  0.59485555  0.50211162  0.77555723    -0.80500
O629        O  0.50743216  0.54134341  0.70856116    -0.80400
O630        O  0.54415180  0.50037763  0.78610636    -0.80500
O631        O  0.54477512  0.57383697  0.65845470    -0.80500
O632        O  0.48850389  0.57198313  0.77241959    -0.80400
O633        O  0.56025301  0.50961526  0.70531570    -0.80500
C634        C  0.57177403  0.51875477  0.66733510     1.09200
C635        C  0.48024665  0.54484695  0.79399786     1.09100
C636        C  0.56542561  0.48948352  0.79616897     1.09300
C637        C  0.51389067  0.54961453  0.66942975     1.09100
O638        O  0.59653921  0.63648791  0.70595564    -0.80400
O639        O  0.59042723  0.55625682  0.84406731    -0.80500
O640        O  0.63608591  0.55924619  0.71508728    -0.80500
O641        O  0.55854124  0.62000876  0.79232593    -0.80400
O642        O  0.55011860  0.58421944  0.84298645    -0.80500
O643        O  0.64178395  0.61045483  0.70920924    -0.80500
O644        O  0.53938030  0.61517008  0.71003855    -0.80400
O645        O  0.63007594  0.57210309  0.79464616    -0.80500
Co646      Co  0.59265866  0.59232560  0.68780533     1.51500
Co647      Co  0.54800223  0.54507301  0.80864979     1.51700
Co648      Co  0.59260644  0.54098028  0.75280828     1.51600
Co649      Co  0.53341532  0.57904686  0.75245850     1.51500
O650        O  0.57585866  0.57439315  0.74950174    -1.42400
C651        C  0.56973587  0.63898739  0.69726804     1.09200
C652        C  0.62261589  0.57002042  0.83383005     1.09300
C653        C  0.65416029  0.59072963  0.70281371     1.09200
C654        C  0.55828758  0.61435180  0.83195105     1.09200
C655        C  0.54274194  0.37216820  0.00021325     0.79900
N656        N  0.55828061  0.39553131  0.52883323    -0.78400
C657        C  0.55966297  0.42653775  0.52394751     0.82400
N658        N  0.55126463  0.43625561  0.99159911    -0.78300
C659        C  0.54767160  0.41692292  0.95581452     0.82500
N660        N  0.54386099  0.38519916  0.96029984    -0.80100
C661        C  0.36376466  0.52279587  0.00022397     0.79900
N662        N  0.38031288  0.51785292  0.53659819    -0.78400
C663        C  0.41135460  0.51748393  0.53246399     0.82400
N664        N  0.42575145  0.52299650  0.99036268    -0.78300
C665        C  0.40752882  0.52325556  0.95503599     0.82500
N666        N  0.37694998  0.52342541  0.96032561    -0.80100
C667        C  0.77145491  0.59755855  0.00434449     0.79900
N668        N  0.76535242  0.60327718  0.54909763    -0.78400
C669        C  0.73568756  0.60510581  0.55357485     0.82400
N670        N  0.71429753  0.60529132  0.01403286    -0.78300
C671        C  0.72256470  0.59911749  0.97398235     0.82500
N672        N  0.75151284  0.59542352  0.96900765    -0.80100
C673        C  0.57314972  0.75999880  0.00196195     0.79900
N674        N  0.56444238  0.74046272  0.54606386    -0.78400
C675        C  0.57095792  0.71417397  0.54895886     0.82400
N676        N  0.56998785  0.69836256  0.01148708    -0.78300
C677        C  0.57120653  0.71018319  0.97090910     0.82500
N678        N  0.57230561  0.74104931  0.96622351    -0.80100
C679        C  0.45455606  0.53358417  0.83012939    -0.05800
C680        C  0.45483084  0.51067041  0.86049326    -0.33200
C681        C  0.43904505  0.50649779  0.90095982     0.36000
C682        C  0.42130174  0.52438825  0.91113097    -0.06100
C683        C  0.41769606  0.54447321  0.87920402    -0.33100
C684        C  0.43429565  0.54928479  0.83896949     0.36000
H685        H  0.46935709  0.49761829  0.85410901     0.16300
O686        O  0.44118404  0.48493089  0.93036059    -0.60600
H687        H  0.40349380  0.55790739  0.88621256     0.16300
O688        O  0.43199554  0.57073006  0.80958907    -0.60700
H689        H  0.41170862  0.55501008  0.79026391     0.43300
H690        H  0.46585004  0.49827829  0.94228665     0.43300
C691        C  0.43397784  0.51968955  0.57019574    -0.05800
C692        C  0.46635123  0.52084717  0.56171280    -0.33200
C693        C  0.49158005  0.52853595  0.59429175     0.36000
C694        C  0.48473920  0.53445305  0.63687183    -0.06100
C695        C  0.45126717  0.53029289  0.64660332    -0.33100
C696        C  0.42593937  0.52300558  0.61364845     0.36000
H697        H  0.47321708  0.51727079  0.52917516     0.16300
O698        O  0.52313026  0.53051380  0.58404756    -0.60600
H699        H  0.44553195  0.53469736  0.67940433     0.16300
O700        O  0.39439032  0.52091170  0.62414344    -0.60700
H701        H  0.37815059  0.49636146  0.63241105     0.43300
H702        H  0.53826893  0.55383269  0.57132989     0.43300
C703        C  0.56532977  0.64134859  0.86592815    -0.05800
C704        C  0.56416847  0.67145071  0.85634107    -0.33200
C705        C  0.56654370  0.69464550  0.88953306     0.36000
C706        C  0.57053399  0.68818841  0.93327946    -0.06100
C707        C  0.57320270  0.65883102  0.94209954    -0.33100
C708        C  0.57086882  0.63593685  0.90938942     0.36000
H709        H  0.56020748  0.67645545  0.82321875     0.16300
O710        O  0.56435500  0.72307510  0.87874676    -0.60600
H711        H  0.57689835  0.65305074  0.97494367     0.16300
O712        O  0.57360063  0.60790230  0.92073804    -0.60700
H713        H  0.59945486  0.61623655  0.91904235     0.43300
H714        H  0.53842356  0.71444041  0.87687814     0.43300
C715        C  0.57272401  0.66506594  0.66576319    -0.05800
C716        C  0.54193830  0.66566021  0.65380875    -0.33200
C717        C  0.54185468  0.68368938  0.61718912     0.36000
C718        C  0.57248425  0.70065341  0.59136222    -0.06100
C719        C  0.60385320  0.70209639  0.60454670    -0.33100
C720        C  0.60443750  0.68517879  0.64195522     0.36000
H721        H  0.51729955  0.65063227  0.67148680     0.16300
O722        O  0.51084497  0.68205963  0.60481945    -0.60600
H723        H  0.62772249  0.71559633  0.58508823     0.16300
O724        O  0.63555245  0.68652534  0.65296154    -0.60700
H725        H  0.64720032  0.70559371  0.67484884     0.43300
H726        H  0.51177276  0.70248277  0.61904943     0.43300
C727        C  0.69808990  0.59378962  0.93746442    -0.05800
C728        C  0.70990222  0.59847008  0.89439484    -0.33200
C729        C  0.68623826  0.59234540  0.85988345     0.36000
C730        C  0.65007395  0.58097490  0.86832281    -0.06100
C731        C  0.63872615  0.57698497  0.91137908    -0.33100
C732        C  0.66209859  0.58343860  0.94556253     0.36000
H733        H  0.73746510  0.60680491  0.88742902     0.16300
O734        O  0.69871345  0.59737654  0.81828321    -0.60600
H735        H  0.61107852  0.56782548  0.91898269     0.16300
O736        O  0.64863050  0.57752157  0.98674125    -0.60700
H737        H  0.64858601  0.59891928  0.99532242     0.43300
H738        H  0.69858305  0.57582981  0.81011918     0.43300
C739        C  0.68422336  0.60152327  0.67249068    -0.05800
C740        C  0.69897744  0.58032253  0.66662428    -0.33200
C741        C  0.71851551  0.58307042  0.62934423     0.36000
C742        C  0.72242796  0.60652092  0.59684666    -0.06100
C743        C  0.71083392  0.62991461  0.60458278    -0.33100
C744        C  0.69254320  0.62813927  0.64240094     0.36000
H745        H  0.69335248  0.56001621  0.68948098     0.16300
O746        O  0.73040204  0.56035522  0.62300609    -0.60600
H747        H  0.71472759  0.64881410  0.58035697     0.16300
O748        O  0.68073549  0.65099472  0.64788410    -0.60700
H749        H  0.65889378  0.64151935  0.62961785     0.43300
H750        H  0.75156895  0.56901144  0.64228515     0.43300
C751        C  0.55725169  0.46581396  0.83350250    -0.05800
C752        C  0.57955319  0.45271533  0.84346617    -0.33200
C753        C  0.57546969  0.43507990  0.88229968     0.36000
C754        C  0.54951423  0.43119399  0.91243942    -0.06100
C755        C  0.52639617  0.44297626  0.90192777    -0.33100
C756        C  0.52943788  0.45925878  0.86250864     0.36000
H757        H  0.60087128  0.45700303  0.82175101     0.16300
O758        O  0.59796984  0.42305432  0.89130410    -0.60600
H759        H  0.50597348  0.43973304  0.92456844     0.16300
O760        O  0.50596140  0.47008524  0.85380639    -0.60700
H761        H  0.48698048  0.45126099  0.83555506     0.43300
H762        H  0.61783656  0.44192746  0.90851970     0.43300
C763        C  0.56691746  0.49348371  0.63195167    -0.05800
C764        C  0.57842983  0.50662529  0.59025541    -0.33200
C765        C  0.57673293  0.48539429  0.55579455     0.36000
C766        C  0.56299750  0.44944237  0.56174401    -0.06100
C767        C  0.55222403  0.43613786  0.60372220    -0.33100
C768        C  0.55396018  0.45778912  0.63858030     0.36000
H769        H  0.58929469  0.53398649  0.58394637     0.16300
O770        O  0.58903565  0.50053133  0.51631671    -0.60600
H771        H  0.54204680  0.40882867  0.60948628     0.16300
O772        O  0.54397886  0.44396686  0.67903261    -0.60700
H773        H  0.51819972  0.43592435  0.68094354     0.43300
H774        H  0.61519255  0.51012600  0.51724454     0.43300
C775        C  0.87348507  0.59540396  0.50115614    -0.05800
C776        C  0.85658850  0.59157169  0.54093118    -0.33200
C777        C  0.82576441  0.59361807  0.54411720     0.36000
C778        C  0.80280622  0.59316008  0.00071481    -0.06100
C779        C  0.81475255  0.58953955  0.95990540    -0.33100
C780        C  0.84390232  0.58469414  0.95611760     0.36000
H781        H  0.86685533  0.58625846  0.56990163     0.16300
O782        O  0.81028327  0.58887300  0.58402041    -0.60600
H783        H  0.80149286  0.59037974  0.93069994     0.16300
O784        O  0.85500493  0.58196050  0.91549698    -0.60700
H785        H  0.83791398  0.55778540  0.90556849     0.43300
H786        H  0.82391358  0.61181801  0.59904309     0.43300
C787        C  0.26207260  0.51644111  0.50802476    -0.05800
C788        C  0.27497764  0.51535189  0.96985568    -0.33200
C789        C  0.30913628  0.52000710  0.96625759     0.36000
C790        C  0.32845880  0.52071360  0.00368448    -0.06100
C791        C  0.31635364  0.52419752  0.54254439    -0.33100
C792        C  0.28395388  0.52367428  0.54534007     0.36000
H793        H  0.26095894  0.51448624  0.94048933     0.16300
O794        O  0.32270239  0.52281845  0.92548765    -0.60600
H795        H  0.33237145  0.52951839  0.57159602     0.16300
O796        O  0.27442197  0.53089516  0.58467329    -0.60700
H797        H  0.26512750  0.50926269  0.60151478     0.43300
H798        H  0.33370758  0.54773917  0.91817086     0.43300
C799        C  0.98733205  0.54442951  0.63026717    -0.05800
C800        C  0.96156506  0.55339904  0.64092828    -0.33200
C801        C  0.95143986  0.57021080  0.61116794     0.36000
C802        C  0.96712445  0.57822498  0.56998046    -0.06100
C803        C  0.99624784  0.57348054  0.56200790    -0.33100
C804        C  0.00582080  0.55613254  0.59124424     0.36000
H805        H  0.94783217  0.54578728  0.67162344     0.16300
O806        O  0.92457534  0.57628140  0.62164455    -0.60600
H807        H  0.01019891  0.58097775  0.53144274     0.16300
O808        O  0.03308577  0.55055085  0.58112137    -0.60700
H809        H  0.02198289  0.52920167  0.56265911     0.43300
H810        H  0.93670763  0.59946559  0.63621499     0.43300
C811        C  0.96195217  0.51983188  0.85366902    -0.05800
C812        C  0.95754840  0.54827366  0.84547923    -0.33200
C813        C  0.94196824  0.55923539  0.87641770     0.36000
C814        C  0.93088656  0.54162823  0.91564802    -0.06100
C815        C  0.93293010  0.51185520  0.92243780    -0.33100
C816        C  0.94838891  0.50089997  0.89188881     0.36000
H817        H  0.96750291  0.56286672  0.81592707     0.16300
O818        O  0.94072181  0.58879828  0.86974540    -0.60600
H819        H  0.92421857  0.49810080  0.95275684     0.16300
O820        O  0.95124857  0.47245985  0.90053660    -0.60700
H821        H  0.92889528  0.45216540  0.88902988     0.43300
H822        H  0.91619313  0.58043583  0.85888218     0.43300
C823        C  0.94909068  0.40777046  0.63573451    -0.05800
C824        C  0.91320628  0.39696258  0.62730730    -0.33200
C825        C  0.89594197  0.37829132  0.58939007     0.36000
C826        C  0.91463879  0.37056311  0.55839978    -0.06100
C827        C  0.95033110  0.38080382  0.56683860    -0.33100
C828        C  0.96741958  0.39873556  0.60534286     0.36000
H829        H  0.89862862  0.40387097  0.64963176     0.16300
O830        O  0.86147082  0.36989182  0.58145452    -0.60600
H831        H  0.96506900  0.37494795  0.54343613     0.16300
O832        O  0.00264730  0.40903722  0.61153924    -0.60700
H833        H  0.00227887  0.38898698  0.62530786     0.43300
H834        H  0.84658512  0.35050590  0.60121237     0.43300
C835        C  0.91642147  0.36137930  0.90373610    -0.05800
C836        C  0.89621532  0.36238181  0.86890133    -0.33200
C837        C  0.91293394  0.38178099  0.83158236     0.36000
C838        C  0.95054636  0.39999205  0.82791991    -0.06100
C839        C  0.97030047  0.39606368  0.86119878    -0.33100
C840        C  0.95367615  0.37725166  0.89869036     0.36000
H841        H  0.86746304  0.34981345  0.87161875     0.16300
O842        O  0.89225526  0.38333738  0.79930216    -0.60600
H843        H  0.99916147  0.40944543  0.85955674     0.16300
O844        O  0.97438086  0.37555519  0.93085653    -0.60700
H845        H  0.97138556  0.35214158  0.92757733     0.43300
H846        H  0.88544322  0.40008313  0.81000329     0.43300
C847        C  0.12649052  0.49834392  0.67300476    -0.05800
C848        C  0.15846366  0.52890531  0.66226354    -0.33200
C849        C  0.17634225  0.53050664  0.62390351     0.36000
C850        C  0.16204289  0.50145344  0.59569378    -0.06100
C851        C  0.13212030  0.47014279  0.60812578    -0.33100
C852        C  0.11487492  0.46812393  0.64695868     0.36000
H853        H  0.16825791  0.55234425  0.68187100     0.16300
O854        O  0.20647502  0.56112139  0.61299371    -0.60600
H855        H  0.12164665  0.44732402  0.58716763     0.16300
O856        O  0.08519512  0.43701691  0.65745568    -0.60700
H857        H  0.09409740  0.42567353  0.67694510     0.43300
H858        H  0.19766599  0.57519693  0.59918407     0.43300
C859        C  0.10031387  0.48608307  0.87182726    -0.05800
C860        C  0.08523130  0.46607735  0.90897060    -0.33200
C861        C  0.10665912  0.46606990  0.94264590     0.36000
C862        C  0.14429289  0.48608840  0.93980261    -0.06100
C863        C  0.15948182  0.50398417  0.90123523    -0.33100
C864        C  0.13782843  0.50418205  0.86747914     0.36000
H865        H  0.05649364  0.45137850  0.91294994     0.16300
O866        O  0.09040196  0.44654457  0.97852866    -0.60600
H867        H  0.18825276  0.51962456  0.89828149     0.16300
O868        O  0.15380852  0.52446669  0.83214931    -0.60700
H869        H  0.15568365  0.50882556  0.81071167     0.43300
H870        H  0.08115613  0.45947778  0.99480294     0.43300
C871        C  0.10110140  0.59732627  0.65314922    -0.05800
C872        C  0.12528080  0.59762728  0.62279482    -0.33200
C873        C  0.13835029  0.62149643  0.58912060     0.36000
C874        C  0.12817817  0.64647538  0.58561370    -0.06100
C875        C  0.10610314  0.64806211  0.61760395    -0.33100
C876        C  0.09250383  0.62361947  0.65131043     0.36000
H877        H  0.13275016  0.57801000  0.62383663     0.16300
O878        O  0.16037450  0.61961223  0.55890729    -0.60600
H879        H  0.09762648  0.66683595  0.61494987     0.16300
O880        O  0.06828291  0.62360183  0.67954215    -0.60700
H881        H  0.08263336  0.64316678  0.70006867     0.43300
H882        H  0.14431788  0.60011276  0.53911213     0.43300
C883        C  0.12342822  0.64368622  0.92645444    -0.05800
C884        C  0.14695531  0.65066032  0.89188845    -0.33200
C885        C  0.13695127  0.62756125  0.85639863     0.36000
C886        C  0.10268508  0.59723548  0.85482135    -0.06100
C887        C  0.07869065  0.59139252  0.88857795    -0.33100
C888        C  0.08883053  0.61407171  0.92413192     0.36000
H889        H  0.17378766  0.67314852  0.89335991     0.16300
O890        O  0.16142037  0.63420763  0.82454347    -0.60600
H891        H  0.05216532  0.56840904  0.88838401     0.16300
O892        O  0.06498099  0.60634025  0.95715019    -0.60700
H893        H  0.05405523  0.62066916  0.95191335     0.43300
H894        H  0.15706426  0.64755333  0.80254747     0.43300
C895        C  0.74201478  0.21321294  0.48808519    -0.05800
C896        C  0.75608565  0.23647889  0.52351779    -0.33200
C897        C  0.78886646  0.26770292  0.52104828     0.36000
C898        C  0.80912729  0.27649424  0.48263178    -0.06100
C899        C  0.79171029  0.25913610  0.95089511    -0.33100
C900        C  0.75769651  0.22884560  0.95222108     0.36000
H901        H  0.74156320  0.23061189  0.55365412     0.16300
O902        O  0.80072625  0.28926480  0.55681349    -0.60600
H903        H  0.80099782  0.27249138  0.92044593     0.16300
O904        O  0.73735799  0.21769975  0.91513869    -0.60700
H905        H  0.74745580  0.20620586  0.89747068     0.43300
H906        H  0.79270100  0.30606855  0.55223852     0.43300
C907        C  0.54291614  0.27322492  0.49411604    -0.05800
C908        C  0.53554645  0.28672034  0.53157567    -0.33200
C909        C  0.54132683  0.32069177  0.53285444     0.36000
C910        C  0.53906224  0.33727952  0.00277908    -0.06100
C911        C  0.55217433  0.32637251  0.96834227    -0.33100
C912        C  0.54597307  0.29253817  0.96579907     0.36000
H913        H  0.52398039  0.27048065  0.55959632     0.16300
O914        O  0.53154854  0.33174966  0.56901659    -0.60600
H915        H  0.56691055  0.34406828  0.94246028     0.16300
O916        O  0.55944878  0.28352003  0.93124544    -0.60700
H917        H  0.54285913  0.27920263  0.90679377     0.43300
H918        H  0.55209021  0.34037234  0.58932099     0.43300
C919        C  0.60361402  0.10584400  0.65768997    -0.05800
C920        C  0.60465296  0.08142187  0.62965916    -0.33200
C921        C  0.62513716  0.09181990  0.59199132     0.36000
C922        C  0.64627984  0.12740248  0.58229382    -0.06100
C923        C  0.64859707  0.15208739  0.61279929    -0.33100
C924        C  0.62745378  0.14156766  0.65025774     0.36000
H925        H  0.58807410  0.05390940  0.63580621     0.16300
O926        O  0.62384405  0.06691096  0.56445463    -0.60600
H927        H  0.66501877  0.17961634  0.60622943     0.16300
O928        O  0.62844301  0.16647193  0.67744959    -0.60700
H929        H  0.64602458  0.17011214  0.70034210     0.43300
H930        H  0.60131331  0.05789922  0.54771363     0.43300
C931        C  0.58229780  0.07994441  0.85754454    -0.05800
C932        C  0.61657245  0.10815308  0.84890875    -0.33200
C933        C  0.64200556  0.12443681  0.88239958     0.36000
C934        C  0.63333936  0.11221500  0.92529607    -0.06100
C935        C  0.59982205  0.08229072  0.93266934    -0.33100
C936        C  0.57454446  0.06638622  0.89951347     0.36000
H937        H  0.62296050  0.11893635  0.81672215     0.16300
O938        O  0.67470180  0.15269577  0.87285620    -0.60600
H939        H  0.59229626  0.07159574  0.96478323     0.16300
O940        O  0.54157440  0.03840997  0.90896614    -0.60700
H941        H  0.54576562  0.01908514  0.91481606     0.43300
H942        H  0.67087256  0.17266794  0.87207180     0.43300
C943        C  0.50506344  0.16044287  0.56552182    -0.05800
C944        C  0.47835007  0.12524671  0.56147168    -0.33200
C945        C  0.47393169  0.10133233  0.59291200     0.36000
C946        C  0.49589378  0.11226372  0.63017454    -0.06100
C947        C  0.52034782  0.14809160  0.63652626    -0.33100
C948        C  0.52501415  0.17221309  0.60445807     0.36000
H949        H  0.46189846  0.11569715  0.53246784     0.16300
O950        O  0.44867160  0.06695970  0.58608654    -0.60600
H951        H  0.53768181  0.15708750  0.66478971     0.16300
O952        O  0.55130738  0.20644739  0.60978909    -0.60700
H953        H  0.54033325  0.21706062  0.62751273     0.43300
H954        H  0.45927180  0.05818299  0.56473117     0.43300
C955        C  0.49707911  0.12761998  0.83082822    -0.05800
C956        C  0.52964563  0.15722809  0.84380192    -0.33200
C957        C  0.53167714  0.17721821  0.88031995     0.36000
C958        C  0.50103742  0.16753948  0.90514202    -0.06100
C959        C  0.46802158  0.13989462  0.89038686    -0.33100
C960        C  0.46572582  0.12034062  0.85320811     0.36000
H961        H  0.55412945  0.16380537  0.82717775     0.16300
O962        O  0.56431942  0.20430936  0.89362004    -0.60600
H963        H  0.44404890  0.13264804  0.90863940     0.16300
O964        O  0.43284214  0.09359232  0.83987969    -0.60700
H965        H  0.42648162  0.07453168  0.86051977     0.43300
H966        H  0.56691049  0.22503712  0.87897273     0.43300
C967        C  0.19667826  0.75736444  0.50562085    -0.05800
C968        C  0.21197864  0.77614799  0.54425022    -0.33200
C969        C  0.24016220  0.81089886  0.54376043     0.36000
C970        C  0.25394133  0.82786227  0.50394534    -0.06100
C971        C  0.25014940  0.80515834  0.96402174    -0.33100
C972        C  0.22289468  0.77017218  0.96435431     0.36000
H973        H  0.20275297  0.76366566  0.57521493     0.16300
O974        O  0.25485387  0.82732246  0.58255586    -0.60600
H975        H  0.26683576  0.81474614  0.93562086     0.16300
O976        O  0.21913547  0.74958598  0.92909985    -0.60700
H977        H  0.20443852  0.75348342  0.90803595     0.43300
H978        H  0.24025406  0.83732737  0.59205531     0.43300
C979        C  0.39491688  0.96258053  0.65219816    -0.05800
C980        C  0.39321227  0.98305276  0.61933700    -0.33200
C981        C  0.37249448  0.96784573  0.58190713     0.36000
C982        C  0.35159019  0.93136783  0.57758326    -0.06100
C983        C  0.35107097  0.91084290  0.61200515    -0.33100
C984        C  0.37278711  0.92606659  0.64872825     0.36000
H985        H  0.40957689  0.01103247  0.62158053     0.16300
O986        O  0.37291275  0.98890687  0.54980871    -0.60600
H987        H  0.33516734  0.88270925  0.60952302     0.16300
O988        O  0.37327201  0.90486581  0.68001215    -0.60700
H989        H  0.35803476  0.90523237  0.70355896     0.43300
H990        H  0.39509288  0.99599698  0.53338431     0.43300
C991        C  0.34819072  0.92560825  0.91639903    -0.05800
C992        C  0.34923589  0.90357724  0.88425232    -0.33200
C993        C  0.36793217  0.91707727  0.84553639     0.36000
C994        C  0.38524851  0.95311042  0.83782427    -0.06100
C995        C  0.38207933  0.97466360  0.86887875    -0.33100
C996        C  0.36441354  0.96137002  0.90801318     0.36000
H997        H  0.33694698  0.87595528  0.89000212     0.16300
O998        O  0.37052035  0.89505239  0.81653547    -0.60600
H999        H  0.39544779  0.00251467  0.86426605     0.16300
O1000       O  0.36427285  0.98387870  0.93841426    -0.60700
H1001       H  0.34180365  0.98373887  0.93308988     0.43300
H1002       H  0.34974384  0.88688159  0.79672622     0.43300
C1003       C  0.55825492  0.84850724  0.99500788    -0.05800
C1004       C  0.54566894  0.82562641  0.54130032    -0.33200
C1005       C  0.55044545  0.79711878  0.54353331     0.36000
C1006       C  0.57157734  0.79245125  0.99790286    -0.06100
C1007       C  0.55638156  0.79779743  0.96091205    -0.33100
C1008       C  0.55000518  0.82551719  0.95905118     0.38700
H1009       H  0.54232690  0.83643937  0.57126003     0.16300
O1010       O  0.55092126  0.78466183  0.58369105    -0.60600
H1011       H  0.54818354  0.77970067  0.93373784     0.16300
O1012       O  0.53442078  0.82886489  0.92236474    -0.60700
H1013       H  0.55462351  0.84412001  0.90327166     0.43300
H1014       H  0.52557805  0.76745137  0.59005947     0.43300
C1015       C  0.53971341  0.93653177  0.57586608    -0.05800
C1016       C  0.52821497  0.92095558  0.61630787    -0.33200
C1017       C  0.52010173  0.93765162  0.64918047     0.36000
C1018       C  0.52274788  0.96986779  0.64114878    -0.06100
C1019       C  0.53682057  0.98645531  0.60199137    -0.33100
C1020       C  0.54622747  0.97054182  0.56994507     0.36000
H1021       H  0.52282164  0.89479935  0.62132064     0.16300
O1022       O  0.50609906  0.92064094  0.68722270    -0.60600
H1023       H  0.53945021  0.01137210  0.59554545     0.16300
O1024       O  0.56049049  0.98781014  0.53202266    -0.60700
H1025       H  0.54086101  0.98871835  0.51708818     0.43300
H1026       H  0.52707112  0.92589711  0.70539204     0.43300
C1027       C  0.51080715  0.91694384  0.92564865    -0.05800
C1028       C  0.53183979  0.92894545  0.88861247    -0.33200
C1029       C  0.52722394  0.94991701  0.85936166     0.36000
C1030       C  0.50049223  0.95841003  0.86634648    -0.06100
C1031       C  0.47820483  0.94477128  0.90228514    -0.33100
C1032       C  0.48340362  0.92449648  0.93200735     0.36000
H1033       H  0.55377272  0.92444615  0.88412070     0.16300
O1034       O  0.55010495  0.96320101  0.82505543    -0.60600
H1035       H  0.45703831  0.95024196  0.90780017     0.16300
O1036       O  0.46224046  0.91291650  0.96806281    -0.60700
H1037       H  0.47069928  0.93371463  0.98717490     0.43300
H1038       H  0.56948366  0.98650571  0.83506228     0.43300
loop_ 
_geom_bond_atom_site_label_1 
_geom_bond_atom_site_label_2 
_geom_bond_distance 
_geom_bond_site_symmetry_2 
_ccdc_geom_bond_type 
C1            N6   1.375   1_556  A
C1          N521   1.371       .  A
C1         C1003   1.504       .  S
N2            C3   1.359       .  A
N2          C520   1.367       .  A
C3            N4   1.342       .  A
C3          C508   1.465       .  S
N4          C524   1.344       .  A
C5            N6   1.364       .  A
C5          N523   1.341   1_554  A
C5          C496   1.480       .  S
C7            N8   1.359   1_556  A
C7          N531   1.360       .  A
C7          C451   1.490       .  S
N8            C9   1.360       .  A
C9          N529   1.363   1_554  A
C9          C463   1.487       .  S
N10          C11   1.362       .  A
N10         C528   1.362       .  A
C11          N12   1.361       .  A
C11         C472   1.490       .  S
N12         C526   1.363       .  A
O13          C21   1.276       .  A
O13         Co33   2.043   1_565  S
O14          C22   1.293       .  A
O14         Co34   2.096       .  S
O15          C23   1.251       .  A
O15         Co35   1.972       .  S
O16          C24   1.274       .  A
O16         Co36   1.989       .  S
O17          C23   1.261       .  A
O17         Co34   1.999   1_565  S
O18          C24   1.275       .  A
O18         Co33   2.006       .  S
O19          C22   1.269       .  A
O19         Co36   1.907       .  S
O20          C21   1.255       .  A
O20         Co35   1.944       .  S
C21         C511   1.478       .  S
C22         C400   1.486       .  S
C23         C499   1.475       .  S
C24         C412   1.479       .  S
O25          C38   1.261       .  A
O25         Co33   1.977       .  S
O26          C39   1.268   1_545  A
O26         Co34   1.972       .  S
O27          C40   1.274       .  A
O27         Co35   2.041       .  S
O28          C41   1.304       .  A
O28         Co36   2.140       .  S
O29          C41   1.260       .  A
O29         Co34   1.879       .  S
O30          C40   1.260       .  A
O30         Co33   1.960   1_565  S
O31          C38   1.264       .  A
O31         Co36   2.004       .  S
O32          C39   1.279       .  A
O32         Co35   2.025       .  S
Co33         O37   2.036       .  S
Co34         O37   2.001       .  S
Co35         O37   2.049   1_565  S
Co36         O37   2.040       .  S
C38         C436   1.491       .  S
C39         C460   1.490       .  S
C40         C475   1.496       .  S
C41         C427   1.495       .  S
C42          N47   1.367   1_556  A
C42         N562   1.365       .  A
C42         C388   1.494       .  S
N43          C44   1.359       .  A
N43         C561   1.367       .  A
C44         N564   1.354       .  A
C44         C439   1.485       .  S
N45          C46   1.362   1_556  A
N45         C563   1.355       .  A
C46          N47   1.365       .  A
C46         C424   1.496       .  S
C48          N53   1.362   1_556  A
C48         N568   1.365       .  A
C48         C376   1.493       .  S
N49          C50   1.362       .  A
N49         C567   1.364       .  A
C50          N51   1.359       .  A
C50         C415   1.496       .  S
N51         C571   1.356       .  A
C52          N53   1.355       .  A
C52         N570   1.354       .  A
C52         C403   1.479       .  S
O54          C62   1.296       .  A
O54         Co74   2.102       .  S
O55          C63   1.280   1_455  A
O55         Co75   2.040       .  S
O56          C64   1.272       .  A
O56         Co76   1.998       .  S
O57          C65   1.252       .  A
O57         Co77   1.964       .  S
O58          C64   1.271       .  A
O58         Co75   1.999       .  S
O59          C65   1.260       .  A
O59         Co74   2.000   1_655  S
O60          C63   1.257       .  A
O60         Co77   1.938       .  S
O61          C62   1.275       .  A
O61         Co76   1.900       .  S
C62         C367   1.487       .  S
C63         C280   1.467       .  S
C64         C352   1.482       .  S
C65         C292   1.460       .  S
O66          C79   1.270   1_455  A
O66         Co74   1.965       .  S
O67          C80   1.257       .  A
O67         Co75   1.958       .  S
O68          C81   1.300       .  A
O68         Co76   2.138       .  S
O69          C82   1.271       .  A
O69         Co77   2.033       .  S
O70          C82   1.256       .  A
O70         Co75   1.956   1_655  S
O71          C81   1.262       .  A
O71         Co74   1.886       .  S
O72          C79   1.281       .  A
O72         Co77   2.033       .  S
O73          C80   1.272       .  A
O73         Co76   2.024       .  S
Co74         O78   1.974       .  S
Co75         O78   2.003       .  S
Co76         O78   2.033       .  S
Co77         O78   2.037   1_655  S
C79         C319   1.491       .  S
C80         C328   1.483       .  S
C81         C340   1.496       .  S
C82         C304   1.489       .  S
C83          N88   1.359       .  A
C83         N603   1.372   1_554  A
C83         C268   1.498       .  S
N84          C85   1.366       .  A
N84         C602   1.371       .  A
C85         N605   1.360       .  A
C85         C343   1.496       .  S
N86          C87   1.352       .  A
N86         C604   1.356   1_554  A
C87          N88   1.353       .  A
C87         C331   1.467       .  S
C89          N90   1.358   1_556  A
C89         N613   1.366       .  A
C89         C379   1.493       .  S
N90          C91   1.355       .  A
C91         N611   1.363   1_554  A
C91         C307   1.488       .  S
N92          C93   1.363       .  A
N92         C610   1.359       .  A
C93          N94   1.364       .  A
C93         C316   1.486       .  S
N94         C608   1.364       .  A
C95          N96   1.369   1_556  A
C95         N619   1.360       .  A
C95         C256   1.482       .  S
N96          C97   1.359       .  A
C97          N98   1.342   1_554  A
C97         C283   1.471       .  S
N98         C618   1.342       .  A
C99         N100   1.352       .  A
C99         N617   1.341       .  A
C99         C295   1.451       .  S
N100        C614   1.361       .  A
C101        N106   1.368       .  A
C101        N621   1.363   1_554  A
C101        C448   1.491       .  S
N102        C103   1.352       .  A
N102        C620   1.358       .  A
C103        N104   1.356       .  A
C103        C364   1.477       .  S
N104        C624   1.358       .  A
C105        N106   1.362       .  A
C105        N623   1.353       .  A
C105        C355   1.474       .  S
O107        C115   1.266       .  A
O107       Co127   2.008       .  S
O108        C116   1.289       .  A
O108       Co128   2.037       .  S
O109        C117   1.279       .  A
O109       Co129   1.925       .  S
O110        C118   1.263       .  A
O110       Co130   2.000       .  S
O111        C117   1.292       .  A
O111       Co128   2.043       .  S
O112        C118   1.267       .  A
O112       Co127   2.008       .  S
O113        C116   1.273       .  A
O113       Co130   1.917       .  S
O114        C115   1.262       .  A
O114       Co129   2.004       .  S
C115        C244   1.493       .  S
C116        C160   1.478       .  S
C117        C232   1.488       .  S
C118        C175   1.483       .  S
O119        C132   1.267       .  A
O119       Co127   1.990       .  S
O120        C133   1.254       .  A
O120       Co128   1.991       .  S
O121        C134   1.273       .  A
O121       Co129   2.003       .  S
O122        C135   1.253       .  A
O122       Co130   1.982       .  S
O123        C135   1.257       .  A
O123       Co128   1.992       .  S
O124        C134   1.265       .  A
O124       Co127   1.969       .  S
O125        C132   1.268       .  A
O125       Co130   2.002       .  S
O126        C133   1.250       .  A
O126       Co129   1.997       .  S
Co127       O131   2.081       .  S
Co128       O131   2.232       .  S
Co129       O131   1.972       .  S
Co130       O131   1.982       .  S
C132        C196   1.482       .  S
C133        C211   1.500       .  S
C134        C220   1.475       .  S
C135        C184   1.486       .  S
C136        N141   1.361       .  A
C136        N656   1.372       .  A
C136        C391   1.496       .  S
N137        C138   1.367       .  A
N137        C655   1.369       .  A
C138        N658   1.360   1_554  A
C138        C247   1.489       .  S
N139        C140   1.353       .  A
N139        C657   1.360       .  A
C140        N141   1.351       .  A
C140        C235   1.474       .  S
C142        N147   1.356       .  A
C142        N662   1.372       .  A
C142        C271   1.494       .  S
N143        C144   1.371       .  A
N143        C661   1.372       .  A
C144        N664   1.360   1_554  A
C144        C172   1.503       .  S
N145        C146   1.349       .  A
N145        C663   1.356       .  A
C146        N147   1.349       .  A
C146        C163   1.473       .  S
C148        N153   1.374       .  A
C148        N668   1.356       .  A
C148        C259   1.494       .  S
N149        C150   1.345       .  A
N149        C667   1.354       .  A
C150        N670   1.348       .  A
C150        C223   1.461       .  S
N151        C152   1.359       .  A
N151        C669   1.353       .  A
C152        N153   1.371       .  A
C152        C208   1.508       .  S
C154        N159   1.369       .  A
C154        N674   1.358       .  A
C154        C487   1.497       .  S
N155        C156   1.354       .  A
N155        C673   1.364       .  A
C156        N676   1.352       .  A
C156        C199   1.476       .  S
N157        C158   1.359       .  A
N157        C675   1.353       .  A
C158        N159   1.368       .  A
C158        C187   1.493       .  S
C160        C161   1.406       .  A
C160        C165   1.410       .  A
C161        C162   1.396       .  A
C161        H166   1.083       .  S
C162        C163   1.407       .  A
C162        O167   1.373       .  S
C163        C164   1.404       .  A
C164        C165   1.399       .  A
C164        H168   1.084       .  S
C165        O169   1.372       .  S
O167        H171   0.992       .  S
O169        H170   0.992       .  S
C172        C173   1.412       .  A
C172        C177   1.415       .  A
C173        C174   1.400       .  A
C173        H178   1.083       .  S
C174        C175   1.405       .  A
C174        O179   1.373       .  S
C175        C176   1.406       .  A
C176        C177   1.410       .  A
C176        H180   1.084       .  S
C177        O181   1.370       .  S
O179        H183   0.992       .  S
O181        H182   0.992       .  S
C184        C185   1.407       .  A
C184        C189   1.408       .  A
C185        C186   1.408       .  A
C185        H190   1.083       .  S
C186        C187   1.413       .  A
C186        O191   1.371       .  S
C187        C188   1.408       .  A
C188        C189   1.399       .  A
C188        H192   1.084       .  S
C189        O193   1.371       .  S
O191        H195   0.992       .  S
O193        H194   0.992       .  S
C196        C197   1.406       .  A
C196        C201   1.411       .  A
C197        C198   1.396       .  A
C197        H202   1.084       .  S
C198        C199   1.406       .  A
C198        O203   1.372       .  S
C199        C200   1.405       .  A
C200        C201   1.408       .  A
C200        H204   1.083       .  S
C201        O205   1.371       .  S
O203        H207   0.992       .  S
O205        H206   0.992       .  S
C208        C209   1.413       .  A
C208        C213   1.418       .  A
C209        C210   1.418       .  A
C209        H214   1.083       .  S
C210        C211   1.416       .  A
C210        O215   1.371       .  S
C211        C212   1.402       .  A
C212        C213   1.394       .  A
C212        H216   1.083       .  S
C213        O217   1.372       .  S
O215        H219   0.992       .  S
O217        H218   0.992       .  S
C220        C221   1.406       .  A
C220        C225   1.415       .  A
C221        C222   1.397       .  A
C221        H226   1.084       .  S
C222        C223   1.406       .  A
C222        O227   1.372       .  S
C223        C224   1.397       .  A
C224        C225   1.393       .  A
C224        H228   1.084       .  S
C225        O229   1.372       .  S
O227        H231   0.991       .  S
O229        H230   0.993       .  S
C232        C233   1.407       .  A
C232        C237   1.416       .  A
C233        C234   1.404       .  A
C233        H238   1.083       .  S
C234        C235   1.407       .  A
C234        O239   1.371       .  S
C235        C236   1.399       .  A
C236        C237   1.399       .  A
C236        H240   1.084       .  S
C237        O241   1.371       .  S
O239        H243   0.992       .  S
O241        H242   0.992       .  S
C244        C245   1.406       .  A
C244        C249   1.414       .  A
C245        C246   1.394       .  A
C245        H250   1.084       .  S
C246        C247   1.410       .  A
C246        O251   1.373       .  S
C247        C248   1.407       .  A
C248        C249   1.413       .  A
C248        H252   1.083       .  S
C249        O253   1.371       .  S
O251        H255   0.992       .  S
O253        H254   0.991       .  S
C256        C257   1.399   1_556  A
C256        C780   1.416       .  A
C257        C258   1.389       .  A
C257        H262   1.083       .  S
C258        C778   1.417       .  A
C258        O263   1.372       .  S
C259        C260   1.403       .  A
C259        C777   1.421       .  A
C260        C261   1.405       .  A
C260        H264   1.083       .  S
C261        C775   1.417       .  A
C261        O265   1.372       .  S
O263        H267   0.992       .  S
O265        H266   0.992       .  S
C268        C273   1.420       .  A
C268        C788   1.401   1_554  A
C269        C270   1.397       .  A
C269        C787   1.399       .  A
C269        H274   1.083       .  S
C270        C271   1.420       .  A
C270        O275   1.371       .  S
C271        C791   1.403       .  A
C272        C273   1.406       .  A
C272        C790   1.404       .  A
C272        H276   1.083       .  S
C273        O277   1.371       .  S
O275        H279   0.992       .  S
O277        H278   0.992       .  S
C280        C281   1.408       .  A
C280        C285   1.400       .  A
C281        C282   1.398       .  A
C281        H286   1.084       .  S
C282        C283   1.405       .  A
C282        O287   1.372       .  S
C283        C284   1.410       .  A
C284        C285   1.394       .  A
C284        H288   1.084   1_655  S
C285        O289   1.371   1_655  S
O287        H291   0.992       .  S
O289        H290   0.992       .  S
C292        C293   1.406       .  A
C292        C297   1.404       .  A
C293        C294   1.396       .  A
C293        H298   1.084       .  S
C294        C295   1.401       .  A
C294        O299   1.372       .  S
C295        C296   1.402       .  A
C296        C297   1.391       .  A
C296        H300   1.084       .  S
C297        O301   1.372       .  S
O299        H303   0.991       .  S
O301        H302   0.992       .  S
C304        C305   1.403       .  A
C304        C309   1.416       .  A
C305        C306   1.406       .  A
C305        H310   1.084       .  S
C306        C307   1.414       .  A
C306        O311   1.371       .  S
C307        C308   1.401       .  A
C308        C309   1.402       .  A
C308        H312   1.084       .  S
C309        O313   1.372   1_655  S
O311        H315   0.992       .  S
O313        H314   0.992       .  S
C316        C317   1.405       .  A
C316        C321   1.409       .  A
C317        C318   1.406       .  A
C317        H322   1.083       .  S
C318        C319   1.413       .  A
C318        O323   1.372       .  S
C319        C320   1.408       .  A
C320        C321   1.401       .  A
C320        H324   1.083       .  S
C321        O325   1.371       .  S
O323        H327   0.992       .  S
O325        H326   0.992       .  S
C328        C329   1.406       .  A
C328        C333   1.417       .  A
C329        C330   1.402       .  A
C329        H334   1.083       .  S
C330        C331   1.406       .  A
C330        O335   1.371       .  S
C331        C332   1.397       .  A
C332        C333   1.395       .  A
C332        H336   1.084       .  S
C333        O337   1.372       .  S
O335        H339   0.992       .  S
O337        H338   0.991       .  S
C340        C341   1.406       .  A
C340        C345   1.414       .  A
C341        C342   1.402       .  A
C341        H346   1.084       .  S
C342        C343   1.411       .  A
C342        O347   1.373       .  S
C343        C344   1.408       .  A
C344        C345   1.412       .  A
C344        H348   1.083       .  S
C345        O349   1.371       .  S
O347        H351   0.992       .  S
O349        H350   0.992       .  S
C352        C353   1.406       .  A
C352        C357   1.410       .  A
C353        C354   1.392       .  A
C353        H358   1.084       .  S
C354        C355   1.406       .  A
C354        O359   1.374       .  S
C355        C356   1.406       .  A
C356        C357   1.411       .  A
C356        H360   1.083       .  S
C357        O361   1.370       .  S
O359        H363   0.992       .  S
O361        H362   0.991       .  S
C364        C365   1.407       .  A
C364        C369   1.404       .  A
C365        C366   1.404       .  A
C365        H370   1.084       .  S
C366        C367   1.410       .  A
C366        O371   1.371       .  S
C367        C368   1.410       .  A
C368        C369   1.396       .  A
C368        H372   1.083       .  S
C369        O373   1.372       .  S
O371        H375   0.992       .  S
O373        H374   0.992       .  S
C376        C377   1.406   1_556  A
C376        C900   1.414       .  A
C377        C378   1.398       .  A
C377        H382   1.083       .  S
C378        C379   1.415   1_554  A
C378        O383   1.372       .  S
C379        C899   1.406       .  A
C380        C381   1.406       .  A
C380        C898   1.407       .  A
C380        H384   1.083       .  S
C381        C895   1.415       .  A
C381        O385   1.371       .  S
O383        H387   0.992       .  S
O385        H386   0.992       .  S
C388        C389   1.411   1_556  A
C388        C912   1.411       .  A
C389        C390   1.411       .  A
C389        H394   1.083       .  S
C390        C910   1.411       .  A
C390        O395   1.371       .  S
C391        C392   1.408       .  A
C391        C909   1.411       .  A
C392        C393   1.399       .  A
C392        H396   1.083       .  S
C393        C907   1.412       .  A
C393        O397   1.372       .  S
O395        H399   0.992       .  S
O397        H398   0.992       .  S
C400        C401   1.407       .  A
C400        C405   1.412       .  A
C401        C402   1.402       .  A
C401        H406   1.083       .  S
C402        C403   1.407       .  A
C402        O407   1.372       .  S
C403        C404   1.403       .  A
C404        C405   1.403       .  A
C404        H408   1.084       .  S
C405        O409   1.371       .  S
O407        H411   0.991       .  S
O409        H410   0.992       .  S
C412        C413   1.403       .  A
C412        C417   1.407       .  A
C413        C414   1.406       .  A
C413        H418   1.084       .  S
C414        C415   1.416       .  A
C414        O419   1.371       .  S
C415        C416   1.409       .  A
C416        C417   1.398       .  A
C416        H420   1.083       .  S
C417        O421   1.372       .  S
O419        H423   0.992       .  S
O421        H422   0.991       .  S
C424        C425   1.402       .  A
C424        C429   1.416       .  A
C425        C426   1.396       .  A
C425        H430   1.084       .  S
C426        C427   1.414       .  A
C426        O431   1.371       .  S
C427        C428   1.408       .  A
C428        C429   1.415       .  A
C428        H432   1.083       .  S
C429        O433   1.371       .  S
O431        H435   0.992       .  S
O433        H434   0.991       .  S
C436        C437   1.410       .  A
C436        C441   1.413       .  A
C437        C438   1.407       .  A
C437        H442   1.084       .  S
C438        C439   1.409       .  A
C438        O443   1.371       .  S
C439        C440   1.403       .  A
C440        C441   1.400       .  A
C440        H444   1.084       .  S
C441        O445   1.372       .  S
O443        H447   0.991       .  S
O445        H446   0.992       .  S
C448        C449   1.406       .  A
C448        C972   1.414   1_554  A
C449        C450   1.405       .  A
C449        H454   1.083       .  S
C450        C451   1.414   1_554  A
C450        O455   1.371       .  S
C451        C971   1.404       .  A
C452        C453   1.399       .  A
C452        C970   1.404       .  A
C452        H456   1.083       .  S
C453        C967   1.418       .  A
C453        O457   1.372       .  S
O455        H459   0.992       .  S
O457        H458   0.992       .  S
C460        C461   1.408       .  A
C460        C465   1.411       .  A
C461        C462   1.407       .  A
C461        H466   1.081   1_565  S
C462        C463   1.410       .  A
C462        O467   1.372       .  S
C463        C464   1.405       .  A
C464        C465   1.399       .  A
C464        H468   1.083       .  S
C465        O469   1.371       .  S
O467        H471   0.992       .  S
O469        H470   0.992       .  S
C472        C473   1.407       .  A
C472        C477   1.408       .  A
C473        C474   1.407       .  A
C473        H478   1.084       .  S
C474        C475   1.413       .  A
C474        O479   1.371       .  S
C475        C476   1.410       .  A
C476        C477   1.403       .  A
C476        H480   1.083   1_565  S
C477        O481   1.372       .  S
O479        H483   0.992       .  S
O481        H482   0.991       .  S
C484        C520   1.493       .  S
C484        C489   1.415       .  A
C484       C1004   1.403       .  A
C485        C486   1.405       .  A
C485       C1003   1.407   1_554  A
C485        H490   1.083       .  S
C486       C1006   1.414   1_554  A
C486        O491   1.373       .  S
C487        C488   1.407       .  A
C487       C1005   1.419       .  A
C488        C489   1.406       .  A
C488        H492   1.083       .  S
C489        O493   1.371       .  S
O491        H495   0.992       .  S
O493        H494   0.992       .  S
C496        C497   1.402       .  A
C496        C501   1.417       .  A
C497        C498   1.406       .  A
C497        H502   1.083       .  S
C498        C499   1.414       .  A
C498        O503   1.371       .  S
C499        C500   1.396       .  A
C500        C501   1.393       .  A
C500        H504   1.084   1_565  S
C501        O505   1.375       .  S
O503        H507   0.992       .  S
O505        H506   0.993       .  S
C508        C509   1.397       .  A
C508        C513   1.410       .  A
C509        C510   1.399       .  A
C509        H514   1.084       .  S
C510        C511   1.415       .  A
C510        O515   1.371       .  S
C511        C512   1.402       .  A
C512        C513   1.399       .  A
C512        H516   1.084       .  S
C513        O517   1.373       .  S
O515        H519   0.992       .  S
O517        H518   0.992       .  S
C520        N525   1.371       .  A
N521        C522   1.360       .  A
C522        N523   1.338       .  A
C522       C1027   1.469       .  S
C524        N525   1.361       .  A
C524       C1015   1.474       .  S
C526        N527   1.357       .  A
C526        C970   1.494       .  S
N527        C528   1.357       .  A
C528        C982   1.485       .  S
N529        C530   1.363       .  A
C530        N531   1.358       .  A
C530        C991   1.486       .  S
O532        C540   1.277       .  A
O532       Co552   2.045   1_565  S
O533        C541   1.295       .  A
O533       Co553   2.100       .  S
O534        C542   1.252       .  A
O534       Co554   1.964       .  S
O535        C543   1.272       .  A
O535       Co555   1.981       .  S
O536        C542   1.264   1_545  A
O536       Co553   2.005       .  S
O537        C543   1.276       .  A
O537       Co552   2.007       .  S
O538        C541   1.270       .  A
O538       Co555   1.911       .  S
O539        C540   1.253       .  A
O539       Co554   1.939       .  S
C540       C1030   1.479       .  S
C541        C919   1.491       .  S
C542       C1018   1.471       .  S
C543        C931   1.477       .  S
O544        C557   1.262       .  A
O544       Co552   1.982       .  S
O545        C558   1.269   1_545  A
O545       Co553   1.970       .  S
O546        C559   1.274       .  A
O546       Co554   2.036       .  S
O547        C560   1.300       .  A
O547       Co555   2.126       .  S
O548        C560   1.263       .  A
O548       Co553   1.879       .  S
O549        C559   1.259   1_545  A
O549       Co552   1.959       .  S
O550        C557   1.268       .  A
O550       Co555   2.015       .  S
O551        C558   1.276       .  A
O551       Co554   2.021       .  S
Co552       O556   2.029       .  S
Co553       O556   1.986       .  S
Co554       O556   2.050   1_565  S
Co555       O556   2.035       .  S
C557        C955   1.498       .  S
C558        C979   1.486       .  S
C559        C994   1.488       .  S
C560        C946   1.487       .  S
C561        N566   1.367       .  A
C561        C907   1.497       .  S
N562        C563   1.356       .  A
C563        C958   1.483       .  S
N564        C565   1.358       .  A
C565        N566   1.362       .  A
C565        C943   1.487       .  S
C567        N572   1.364       .  A
C567        C895   1.494       .  S
N568        C569   1.363       .  A
C569        N570   1.360   1_556  A
C569        C934   1.495       .  S
C571        N572   1.358       .  A
C571        C922   1.486       .  S
O573        C581   1.297       .  A
O573       Co593   2.102       .  S
O574        C582   1.282   1_455  A
O574       Co594   2.042       .  S
O575        C583   1.273       .  A
O575       Co595   2.007       .  S
O576        C584   1.247       .  A
O576       Co596   1.956       .  S
O577        C583   1.271       .  A
O577       Co594   2.007       .  S
O578        C584   1.256       .  A
O578       Co593   1.990   1_655  S
O579        C582   1.256       .  A
O579       Co596   1.939       .  S
O580        C581   1.272       .  A
O580       Co595   1.894       .  S
C581        C886   1.483       .  S
C582        C799   1.481       .  S
C583        C871   1.489       .  S
C584        C811   1.461       .  S
O585        C598   1.270   1_455  A
O585       Co593   1.969       .  S
O586        C599   1.258       .  A
O586       Co594   1.964       .  S
O587        C600   1.300       .  A
O587       Co595   2.135       .  S
O588        C601   1.270       .  A
O588       Co596   2.022       .  S
O589        C601   1.256       .  A
O589       Co594   1.959   1_655  S
O590        C600   1.260       .  A
O590       Co593   1.878       .  S
O591        C598   1.284       .  A
O591       Co596   2.057       .  S
O592        C599   1.270       .  A
O592       Co595   2.018       .  S
Co593       O597   1.984       .  S
Co594       O597   2.018       .  S
Co595       O597   2.035       .  S
Co596       O597   2.047   1_655  S
C598        C838   1.504       .  S
C599        C847   1.482       .  S
C600        C859   1.491       .  S
C601        C823   1.491       .  S
C602        N607   1.355       .  A
C602        C787   1.493       .  S
N603        C604   1.367       .  A
C604        C862   1.494       .  S
N605        C606   1.356       .  A
C606        N607   1.350       .  A
C606        C850   1.466       .  S
C608        N609   1.359       .  A
C608        C898   1.495       .  S
N609        C610   1.355       .  A
C610        C826   1.483       .  S
N611        C612   1.365       .  A
C612        N613   1.365       .  A
C612        C835   1.496       .  S
C614        N615   1.373       .  A
C614        C775   1.491       .  S
N615        C616   1.367       .  A
C616        N617   1.346       .  A
C616        C802   1.487       .  S
C618        N619   1.352       .  A
C618        C814   1.449       .  S
C620        N625   1.369       .  A
C620        C967   1.495       .  S
N621        C622   1.356       .  A
C622        N623   1.351   1_556  A
C622        C883   1.476       .  S
C624        N625   1.364       .  A
C624        C874   1.482       .  S
O626        C634   1.265       .  A
O626       Co646   2.002       .  S
O627        C635   1.290       .  A
O627       Co647   2.036       .  S
O628        C636   1.280       .  A
O628       Co648   1.935       .  S
O629        C637   1.258       .  A
O629       Co649   1.987       .  S
O630        C636   1.291       .  A
O630       Co647   2.035       .  S
O631        C637   1.271       .  A
O631       Co646   2.019       .  S
O632        C635   1.274       .  A
O632       Co649   1.921       .  S
O633        C634   1.265       .  A
O633       Co648   2.006       .  S
C634        C763   1.497       .  S
C635        C679   1.481       .  S
C636        C751   1.492       .  S
C637        C694   1.478       .  S
O638        C651   1.261       .  A
O638       Co646   1.971       .  S
O639        C652   1.253       .  A
O639       Co647   1.977       .  S
O640        C653   1.275       .  A
O640       Co648   2.015       .  S
O641        C654   1.252       .  A
O641       Co649   1.989       .  S
O642        C654   1.258       .  A
O642       Co647   1.999       .  S
O643        C653   1.264       .  A
O643       Co646   1.972       .  S
O644        C651   1.268       .  A
O644       Co649   2.007       .  S
O645        C652   1.246       .  A
O645       Co648   1.974       .  S
Co646       O650   2.062       .  S
Co647       O650   2.229       .  S
Co648       O650   1.979       .  S
Co649       O650   1.970       .  S
C651        C715   1.484       .  S
C652        C730   1.481       .  S
C653        C739   1.481       .  S
C654        C703   1.498       .  S
C655        N660   1.362   1_554  A
C655        C910   1.490       .  S
N656        C657   1.370       .  A
C657        C766   1.501       .  S
N658        C659   1.354       .  A
C659        N660   1.353       .  A
C659        C754   1.477       .  S
C661        N666   1.355   1_554  A
C661        C790   1.499       .  S
N662        C663   1.370       .  A
C663        C691   1.497       .  S
N664        C665   1.354       .  A
C665        N666   1.349       .  A
C665        C682   1.475       .  S
C667        N672   1.367   1_554  A
C667        C778   1.484       .  S
N668        C669   1.346       .  A
C669        C742   1.471       .  S
N670        C671   1.354   1_554  A
C671        N672   1.365       .  A
C671        C727   1.484       .  S
C673        N678   1.373   1_554  A
C673       C1006   1.497   1_554  S
N674        C675   1.350       .  A
C675        C718   1.466       .  S
N676        C677   1.358   1_554  A
C677        N678   1.369       .  A
C677        C706   1.505       .  S
C679        C680   1.404       .  A
C679        C684   1.410       .  A
C680        C681   1.395       .  A
C680        H685   1.078       .  S
C681        C682   1.405       .  A
C681        O686   1.373       .  S
C682        C683   1.406       .  A
C683        C684   1.401       .  A
C683        H687   1.084       .  S
C684        O688   1.371       .  S
O686        H690   0.992       .  S
O688        H689   0.992       .  S
C691        C692   1.412       .  A
C691        C696   1.413       .  A
C692        C693   1.394       .  A
C692        H697   1.082       .  S
C693        C694   1.401       .  A
C693        O698   1.371       .  S
C694        C695   1.408       .  A
C695        C696   1.409       .  A
C695        H699   1.084       .  S
C696        O700   1.371       .  S
O698        H702   0.992       .  S
O700        H701   0.992       .  S
C703        C704   1.411       .  A
C703        C708   1.410       .  A
C704        C705   1.415       .  A
C704        H709   1.083       .  S
C705        C706   1.415       .  A
C705        O710   1.371       .  S
C706        C707   1.409       .  A
C707        C708   1.396       .  A
C707        H711   1.083       .  S
C708        O712   1.371       .  S
O710        H714   0.992       .  S
O712        H713   0.991       .  S
C715        C716   1.407       .  A
C715        C720   1.416       .  A
C716        C717   1.400       .  A
C716        H721   1.083       .  S
C717        C718   1.405       .  A
C717        O722   1.371       .  S
C718        C719   1.397       .  A
C719        C720   1.398       .  A
C719        H723   1.084       .  S
C720        O724   1.371       .  S
O722        H726   0.992       .  S
O724        H725   0.992       .  S
C727        C728   1.406       .  A
C727        C732   1.414       .  A
C728        C729   1.407       .  A
C728        H733   1.083       .  S
C729        C730   1.413       .  A
C729        O734   1.372       .  S
C730        C731   1.401       .  A
C731        C732   1.388       .  A
C731        H735   1.083       .  S
C732        O736   1.373       .  S
O734        H738   0.992       .  S
O736        H737   0.992       .  S
C739        C740   1.405       .  A
C739        C744   1.415       .  A
C740        C741   1.402       .  A
C740        H745   1.084       .  S
C741        C742   1.409       .  A
C741        O746   1.372       .  S
C742        C743   1.397       .  A
C743        C744   1.395       .  A
C743        H747   1.084       .  S
C744        O748   1.372       .  S
O746        H750   0.992       .  S
O748        H749   0.992       .  S
C751        C752   1.407       .  A
C751        C756   1.416       .  A
C752        C753   1.406       .  A
C752        H757   1.083       .  S
C753        C754   1.408       .  A
C753        O758   1.371       .  S
C754        C755   1.398       .  A
C755        C756   1.399       .  A
C755        H759   1.084       .  S
C756        O760   1.368       .  S
O758        H762   0.992       .  S
O760        H761   0.992       .  S
C763        C764   1.405       .  A
C763        C768   1.413       .  A
C764        C765   1.395       .  A
C764        H769   1.084       .  S
C765        C766   1.415       .  A
C765        O770   1.373       .  S
C766        C767   1.411       .  A
C767        C768   1.415       .  A
C767        H771   1.083       .  S
C768        O772   1.371       .  S
O770        H774   0.992       .  S
O772        H773   0.992       .  S
C775        C776   1.400       .  A
C776        C777   1.398       .  A
C776        H781   1.083       .  S
C777        O782   1.372       .  S
C778        C779   1.404   1_554  A
C779        C780   1.401       .  A
C779        H783   1.083       .  S
C780        O784   1.372       .  S
O782        H786   0.992       .  S
O784        H785   0.992       .  S
C787        C792   1.420       .  A
C788        C789   1.400       .  A
C788        H793   1.083       .  S
C789        C790   1.421   1_556  A
C789        O794   1.372       .  S
C791        C792   1.405       .  A
C791        H795   1.083       .  S
C792        O796   1.372       .  S
O794        H798   0.992       .  S
O796        H797   0.992       .  S
C799        C800   1.413       .  A
C799        C804   1.401   1_655  A
C800        C801   1.403       .  A
C800        H805   1.083       .  S
C801        C802   1.406       .  A
C801        O806   1.371       .  S
C802        C803   1.414       .  A
C803        C804   1.395   1_655  A
C803        H807   1.084   1_655  S
C804        O808   1.372       .  S
O806        H810   0.992       .  S
O808        H809   0.992       .  S
C811        C812   1.409       .  A
C811        C816   1.405       .  A
C812        C813   1.396       .  A
C812        H817   1.083       .  S
C813        C814   1.400       .  A
C813        O818   1.372       .  S
C814        C815   1.401       .  A
C815        C816   1.384       .  A
C815        H819   1.085       .  S
C816        O820   1.372       .  S
O818        H822   0.992       .  S
O820        H821   0.992       .  S
C823        C824   1.404       .  A
C823        C828   1.418       .  A
C824        C825   1.402       .  A
C824        H829   1.083       .  S
C825        C826   1.409       .  A
C825        O830   1.371       .  S
C826        C827   1.403       .  A
C827        C828   1.405       .  A
C827        H831   1.084       .  S
C828        O832   1.372   1_655  S
O830        H834   0.992       .  S
O832        H833   0.992       .  S
C835        C836   1.407       .  A
C835        C840   1.410       .  A
C836        C837   1.412       .  A
C836        H841   1.083       .  S
C837        C838   1.414       .  A
C837        O842   1.371       .  S
C838        C839   1.411       .  A
C839        C840   1.406       .  A
C839        H843   1.083       .  S
C840        O844   1.372       .  S
O842        H846   0.992       .  S
O844        H845   0.992       .  S
C847        C848   1.407       .  A
C847        C852   1.415       .  A
C848        C849   1.402       .  A
C848        H853   1.083       .  S
C849        C850   1.406       .  A
C849        O854   1.372       .  S
C850        C851   1.397       .  A
C851        C852   1.396       .  A
C851        H855   1.084       .  S
C852        O856   1.372       .  S
O854        H858   0.992       .  S
O856        H857   0.992       .  S
C859        C860   1.405       .  A
C859        C864   1.412       .  A
C860        C861   1.399       .  A
C860        H865   1.084       .  S
C861        C862   1.413       .  A
C861        O866   1.373       .  S
C862        C863   1.408       .  A
C863        C864   1.410       .  A
C863        H867   1.083       .  S
C864        O868   1.371       .  S
O866        H870   0.992       .  S
O868        H869   0.992       .  S
C871        C872   1.407       .  A
C871        C876   1.410       .  A
C872        C873   1.398       .  A
C872        H877   1.084       .  S
C873        C874   1.406       .  A
C873        O878   1.373       .  S
C874        C875   1.407       .  A
C875        C876   1.414       .  A
C875        H879   1.083       .  S
C876        O880   1.371       .  S
O878        H882   0.992       .  S
O880        H881   0.992       .  S
C883        C884   1.404       .  A
C883        C888   1.408       .  A
C884        C885   1.403       .  A
C884        H889   1.083       .  S
C885        C886   1.412       .  A
C885        O890   1.371       .  S
C886        C887   1.407       .  A
C887        C888   1.394       .  A
C887        H891   1.084       .  S
C888        O892   1.373       .  S
O890        H894   0.992       .  S
O892        H893   0.992       .  S
C895        C896   1.405       .  A
C896        C897   1.398       .  A
C896        H901   1.083       .  S
C897        C898   1.415       .  A
C897        O902   1.371       .  S
C899        C900   1.406       .  A
C899        H903   1.083       .  S
C900        O904   1.371       .  S
O902        H906   0.992       .  S
O904        H905   0.992       .  S
C907        C908   1.411       .  A
C908        C909   1.409       .  A
C908        H913   1.083       .  S
C909        O914   1.371       .  S
C910        C911   1.405   1_554  A
C911        C912   1.397       .  A
C911        H915   1.084       .  S
C912        O916   1.372       .  S
O914        H918   0.992       .  S
O916        H917   0.992       .  S
C919        C920   1.406       .  A
C919        C924   1.412       .  A
C920        C921   1.399       .  A
C920        H925   1.081       .  S
C921        C922   1.408       .  A
C921        O926   1.372       .  S
C922        C923   1.407       .  A
C923        C924   1.408       .  A
C923        H927   1.083       .  S
C924        O928   1.371       .  S
O926        H930   0.992       .  S
O928        H929   0.992       .  S
C931        C932   1.404       .  A
C931        C936   1.405       .  A
C932        C933   1.408       .  A
C932        H937   1.084       .  S
C933        C934   1.416       .  A
C933        O938   1.371       .  S
C934        C935   1.407       .  A
C935        C936   1.395       .  A
C935        H939   1.083       .  S
C936        O940   1.372       .  S
O938        H942   0.992       .  S
O940        H941   0.991       .  S
C943        C944   1.402       .  A
C943        C948   1.412       .  A
C944        C945   1.394       .  A
C944        H949   1.084       .  S
C945        C946   1.409       .  A
C945        O950   1.370       .  S
C946        C947   1.408       .  A
C947        C948   1.412       .  A
C947        H951   1.084       .  S
C948        O952   1.371       .  S
O950        H954   0.992       .  S
O952        H953   0.992       .  S
C955        C956   1.410       .  A
C955        C960   1.416       .  A
C956        C957   1.405       .  A
C956        H961   1.083       .  S
C957        C958   1.406       .  A
C957        O962   1.371       .  S
C958        C959   1.403       .  A
C959        C960   1.407       .  A
C959        H963   1.084       .  S
C960        O964   1.372       .  S
O962        H966   0.992       .  S
O964        H965   0.992       .  S
C967        C968   1.405       .  A
C968        C969   1.403       .  A
C968        H973   1.083       .  S
C969        C970   1.417       .  A
C969        O974   1.371       .  S
C971        C972   1.398       .  A
C971        H975   1.083       .  S
C972        O976   1.372       .  S
O974        H978   0.992       .  S
O976        H977   0.992       .  S
C979        C980   1.405       .  A
C979        C984   1.411       .  A
C980        C981   1.401       .  A
C980        H985   1.079   1_565  S
C981        C982   1.408       .  A
C981        O986   1.372       .  S
C982        C983   1.408       .  A
C983        C984   1.402       .  A
C983        H987   1.084       .  S
C984        O988   1.372       .  S
O986        H990   0.992       .  S
O988        H989   0.992       .  S
C991        C992   1.408       .  A
C991        C996   1.407       .  A
C992        C993   1.405       .  A
C992        H997   1.084       .  S
C993        C994   1.411       .  A
C993        O998   1.371       .  S
C994        C995   1.409       .  A
C995        C996   1.400       .  A
C995        H999   1.083   1_565  S
C996       O1000   1.371       .  S
O998       H1002   0.992       .  S
O1000      H1001   0.991       .  S
C1003      C1008   1.419       .  A
C1004      C1005   1.399       .  A
C1004      H1009   1.083       .  S
C1005      O1010   1.372       .  S
C1006      C1007   1.405       .  A
C1007      C1008   1.407       .  A
C1007      H1011   1.083       .  S
C1008      O1012   1.371       .  S
O1010      H1014   0.992       .  S
O1012      H1013   0.992       .  S
C1015      C1016   1.401       .  A
C1015      C1020   1.414       .  A
C1016      C1017   1.403       .  A
C1016      H1021   1.083       .  S
C1017      C1018   1.413       .  A
C1017      O1022   1.372       .  S
C1018      C1019   1.396       .  A
C1019      C1020   1.393       .  A
C1019      H1023   1.083   1_565  S
C1020      O1024   1.374       .  S
O1022      H1026   0.991       .  S
O1024      H1025   0.992       .  S
C1027      C1028   1.397       .  A
C1027      C1032   1.414       .  A
C1028      C1029   1.399       .  A
C1028      H1033   1.084       .  S
C1029      C1030   1.417       .  A
C1029      O1034   1.372       .  S
C1030      C1031   1.400       .  A
C1031      C1032   1.398       .  A
C1031      H1035   1.084       .  S
C1032      O1036   1.374       .  S
O1034      H1038   0.992       .  S
O1036      H1037   0.992       .  S
