geometry optimzed in LAMMPS
_audit_creation_date              2020-12-01 
_audit_creation_method            'lammps2cif' 
_symmetry_space_group_name_H-M    'P1' 
_symmetry_Int_Tables_number       1 
_symmetry_cell_setting            triclinic 
loop_ 
_symmetry_equiv_pos_as_xyz 
  x,y,z 
_cell_length_a                    55.83618969 
_cell_length_b                    55.822637042227164 
_cell_length_c                    39.47793772810246 
_cell_angle_alpha                 89.8600975146295 
_cell_angle_beta                  90.26567196483873 
_cell_angle_gamma                 120.1321081481018 
loop_ 
_atom_site_label 
_atom_site_type_symbol 
_atom_site_fract_x 
_atom_site_fract_y 
_atom_site_fract_z 
_atom_site_charge 
C1          C  0.49004294  0.72015101  0.10164667     0.03900
C2          C  0.49420998  0.72198639  0.13696217    -0.12300
C3          C  0.49197471  0.74197043  0.15631357     0.01400
C4          C  0.48628687  0.76080534  0.13901256    -0.10800
C5          C  0.48346349  0.76015989  0.10368012     0.03900
C6          C  0.48495068  0.73954288  0.08531394    -0.10200
H7          H  0.49872141  0.70746353  0.14931900     0.09500
H8          H  0.48304086  0.77564400  0.15271047     0.07000
H9          H  0.48270775  0.73900675  0.05803720     0.06800
C10         C  0.49033416  0.71987147  0.24914292     0.03900
C11         C  0.48974560  0.71922861  0.21345520    -0.12300
C12         C  0.49457966  0.74275369  0.19435487     0.01400
C13         C  0.50086767  0.76706329  0.21218095    -0.10800
C14         C  0.49953523  0.76730169  0.24755059     0.03900
C15         C  0.49436437  0.74370047  0.26588422    -0.10200
H16         H  0.48458910  0.69997619  0.20110170     0.09500
H17         H  0.50608369  0.78591102  0.19874098     0.07000
H18         H  0.49431559  0.74422650  0.29330954     0.06800
C19         C  0.23543869  0.78405879  0.24229498     0.03900
C20         C  0.23308272  0.78650145  0.20717389    -0.12300
C21         C  0.21397650  0.76366002  0.18752458     0.01400
C22         C  0.19584107  0.73891671  0.20476501    -0.10800
C23         C  0.19616496  0.73702342  0.24020227     0.03900
C24         C  0.21670996  0.75933890  0.25872482    -0.10200
H25         H  0.24692124  0.80614745  0.19543449     0.09500
H26         H  0.18144384  0.72055268  0.19099598     0.07000
H27         H  0.21762729  0.75788141  0.28601777     0.06800
C28         C  0.23759562  0.78540867  0.09575711     0.03900
C29         C  0.23699060  0.78510367  0.13133462    -0.12300
C30         C  0.21370073  0.76507432  0.14935658     0.01400
C31         C  0.19073223  0.74547974  0.13032361    -0.10800
C32         C  0.19201417  0.74418282  0.09493175     0.03900
C33         C  0.21541867  0.76427934  0.07775303    -0.10200
H34         H  0.25537626  0.80012365  0.14457557     0.09500
H35         H  0.17193619  0.73043653  0.14272627     0.07000
H36         H  0.21597666  0.76384386  0.05034157     0.06800
C37         C  0.20567311  0.47701102  0.10089574     0.03900
C38         C  0.20432526  0.47437908  0.13630145    -0.12300
C39         C  0.22760007  0.47932361  0.15595718     0.01400
C40         C  0.25175617  0.48447752  0.13838517    -0.10800
C41         C  0.25285644  0.48557718  0.10283900     0.03900
C42         C  0.23014233  0.48284325  0.08432776    -0.10200
H43         H  0.18486403  0.46873752  0.14816363     0.09500
H44         H  0.27029375  0.48843582  0.15171157     0.07000
H45         H  0.23111792  0.48412440  0.05693170     0.06800
C46         C  0.20347609  0.48080086  0.24667343     0.03900
C47         C  0.20548116  0.48162032  0.21120946    -0.12300
C48         C  0.22654713  0.47941880  0.19427316     0.01400
C49         C  0.24664593  0.47778888  0.21446931    -0.10800
C50         C  0.24601786  0.47870376  0.25007246     0.03900
C51         C  0.22418009  0.47986298  0.26591285    -0.10200
H52         H  0.19066881  0.48473461  0.19720522     0.09500
H53         H  0.26315654  0.47606674  0.20294274     0.07000
H54         H  0.22298296  0.47927312  0.29327533     0.06800
C55         C  0.76607674  0.25623435  0.24675320     0.03900
C56         C  0.76582699  0.25492125  0.21116845    -0.12300
C57         C  0.74259372  0.23469899  0.19286989     0.01400
C58         C  0.72002619  0.21447745  0.21183803    -0.10800
C59         C  0.72050953  0.21452018  0.24746964     0.03900
C60         C  0.74329667  0.23578991  0.26465766    -0.10200
H61         H  0.78407084  0.27003849  0.19806163     0.09500
H62         H  0.70142596  0.19895992  0.19945797     0.07000
H63         H  0.74362834  0.23589995  0.29207354     0.06800
C64         C  0.76107381  0.25981851  0.10076110     0.03900
C65         C  0.74086417  0.23702121  0.08283001    -0.12300
C66         C  0.72079589  0.21345822  0.09983549     0.01400
C67         C  0.72203550  0.21220861  0.13539455    -0.10800
C68         C  0.74193738  0.23515941  0.15446766     0.03900
C69         C  0.76093493  0.25909003  0.13627715    -0.10200
H70         H  0.74076453  0.23760304  0.05540716     0.09500
H71         H  0.70691577  0.19343786  0.14772199     0.07000
H72         H  0.77536183  0.27789823  0.14918560     0.06800
C73         C  0.72046709  0.51022588  0.10346583     0.03900
C74         C  0.72067102  0.51094967  0.13892876    -0.12300
C75         C  0.74388154  0.51501592  0.15770091     0.01400
C76         C  0.76707911  0.51813730  0.13954299    -0.10800
C77         C  0.76629696  0.51518188  0.10408174     0.03900
C78         C  0.74278393  0.51116916  0.08618748    -0.10200
H79         H  0.70220905  0.50786902  0.15151390     0.09500
H80         H  0.78582736  0.52251368  0.15273015     0.07000
H81         H  0.74243935  0.51021185  0.05877269     0.06800
C82         C  0.72245407  0.51706245  0.24955126     0.03900
C83         C  0.74101708  0.51168610  0.26729873    -0.12300
C84         C  0.76088769  0.50823073  0.25000667     0.01400
C85         C  0.76112672  0.50875232  0.21447413    -0.10800
C86         C  0.74347986  0.51511961  0.19585697     0.03900
C87         C  0.72466027  0.52011235  0.21414529    -0.10200
H88         H  0.74010210  0.51050243  0.29468928     0.09500
H89         H  0.77463435  0.50320117  0.20156008     0.07000
H90         H  0.71095470  0.52549940  0.20117222     0.06800
C91         C  0.47627065  0.21393006  0.24237057     0.03900
C92         C  0.48162667  0.23788302  0.26006811    -0.12300
C93         C  0.48546071  0.26139727  0.24256577     0.01400
C94         C  0.48577263  0.26152541  0.20697623    -0.10800
C95         C  0.48099554  0.23786875  0.18848651     0.03900
C96         C  0.47491582  0.21374797  0.20685882    -0.10200
H97         H  0.48189106  0.23789812  0.28751718     0.09500
H98         H  0.49059445  0.28055006  0.19416835     0.07000
H99         H  0.46990648  0.19482358  0.19374468     0.06800
C100        C  0.49209360  0.22056766  0.09806939     0.03900
C101        C  0.48981873  0.22022067  0.13347898    -0.12300
C102        C  0.48340177  0.23853052  0.15048030     0.01400
C103        C  0.47995661  0.25774792  0.13079429    -0.10800
C104        C  0.48373733  0.25930711  0.09547361     0.03900
C105        C  0.48971557  0.24057903  0.07940067    -0.10200
H106        H  0.49359669  0.20578105  0.14747965     0.09500
H107        H  0.47462185  0.27181224  0.14273143     0.07000
H108        H  0.49148288  0.24089123  0.05207362     0.06800
O109        O  0.50190293  0.55325770  0.49563226    -0.74600
O110        O  0.46579682  0.54989073  0.46444105    -0.53500
C111        C  0.48451763  0.56106757  0.48755211     0.79200
O112        O  0.55231084  0.51158128  0.36174691    -0.59200
O113        O  0.54653113  0.47377856  0.39110506    -0.52200
C114        C  0.55936346  0.49356062  0.36970662     0.71200
O115        O  0.50478416  0.55718116  0.36155648    -0.73700
O116        O  0.46770120  0.55247183  0.39140322    -0.54300
C117        C  0.48701213  0.56456414  0.36924932     0.77200
O118        O  0.54867761  0.50656168  0.49556538    -0.58900
O119        O  0.54399177  0.47031296  0.46389517    -0.52000
C120        C  0.55594676  0.48886163  0.48688928     0.73800
Zr121      Zr  0.51346250  0.51833524  0.47886863     2.54700
O122        O  0.55651955  0.56249161  0.48243079    -0.79400
O123        O  0.50994169  0.51064282  0.03934361    -0.92800
Zr124      Zr  0.51639886  0.52206304  0.37816890     2.64700
O125        O  0.55992277  0.56568559  0.38311699    -0.97800
O126        O  0.51565391  0.52050696  0.31650673    -0.79900
O127        O  0.50198294  0.53404923  0.42867140    -0.83200
O128        O  0.52887020  0.50763688  0.42844342    -2.17900
O129        O  0.45459527  0.41325737  0.49182549    -0.66600
O130        O  0.49166972  0.41851417  0.46154178    -0.51200
C131        C  0.47264213  0.40629399  0.48386825     0.72200
O132        O  0.41017914  0.46222972  0.35674078    -0.59500
O133        O  0.41430246  0.49878977  0.38740415    -0.51500
C134        C  0.40260835  0.47983050  0.36464337     0.74000
O135        O  0.46026271  0.41838973  0.35374566    -0.70900
O136        O  0.49494381  0.42096702  0.38710200    -0.49600
C137        C  0.47763574  0.41060332  0.36243140     0.75400
O138        O  0.40727220  0.45887838  0.49160434    -0.66200
O139        O  0.41268449  0.49682222  0.46293339    -0.53400
C140        C  0.40036366  0.47715401  0.48474131     0.73700
Zr141      Zr  0.44207285  0.44744998  0.47360442     2.77500
O142        O  0.39858583  0.40444260  0.46469118    -0.97000
O143        O  0.43331150  0.44176019  0.02993936    -0.77800
Zr144      Zr  0.44563737  0.45095017  0.37308427     2.70100
O145        O  0.40282001  0.40644411  0.37059126    -0.79100
O146        O  0.44871395  0.45661528  0.31180339    -0.98100
Zr147      Zr  0.45270447  0.51141033  0.42625710     2.21500
Zr148      Zr  0.50578703  0.45847942  0.42588275     2.11100
O149        O  0.45652401  0.43513607  0.42339651    -2.46800
O150        O  0.42993279  0.46220461  0.42327349    -0.78800
O151        O  0.49104901  0.46938863  0.47708463    -0.71000
O152        O  0.46746107  0.49992005  0.37534043    -2.32000
O153        O  0.46445409  0.49641181  0.47710984    -2.28200
O154        O  0.49456769  0.47317866  0.37480708    -0.72800
H155        H  0.54868743  0.51557200  0.42935235     0.79200
H156        H  0.46196179  0.50647822  0.35574318     0.80300
H157        H  0.44874394  0.41536812  0.42242923     0.82500
H158        H  0.45804680  0.50169855  0.49674458     0.80100
H159        H  0.49763753  0.51861041  0.30997467     0.43200
H160        H  0.46835660  0.46306633  0.30657727     0.42100
H161        H  0.40847336  0.39236811  0.37367354     0.41800
H162        H  0.38786729  0.40194183  0.48562049     0.39700
H163        H  0.44557517  0.45991125  0.04074270     0.42900
H164        H  0.49891428  0.51890852  0.04736631     0.37700
H165        H  0.55823545  0.57119169  0.46001330     0.43800
H166        H  0.57212096  0.56120839  0.39670289     0.40200
H167        H  0.38882520  0.40899888  0.44706063     0.45100
H168        H  0.52868441  0.52278754  0.04885400     0.43800
H169        H  0.56788765  0.56929225  0.36005735     0.44000
H170        H  0.43845099  0.43751020  0.30274275     0.44300
O171        O  0.02968574  0.56870175  0.35655617    -0.74600
O172        O  0.06197549  0.56422847  0.38714479    -0.53500
C173        C  0.05491312  0.57640118  0.36500998     0.79200
O174        O  0.93699017  0.52405716  0.48804190    -0.59200
O175        O  0.90539041  0.48593911  0.45868734    -0.52200
C176        C  0.91198073  0.50605786  0.47946927     0.71200
O177        O  0.03062626  0.57076691  0.48825476    -0.73700
O178        O  0.06277106  0.56539335  0.45909734    -0.54300
C179        C  0.05577306  0.57817663  0.48039277     0.77200
O180        O  0.93557742  0.51370067  0.35150302    -0.58900
O181        O  0.90398121  0.47932274  0.38555041    -0.52000
C182        C  0.91062780  0.49592226  0.36023594     0.73800
Zr183      Zr  0.98294228  0.53125041  0.37158311     2.54700
O184        O  0.97716122  0.57161524  0.36808754    -0.79400
O185        O  0.98541592  0.52981146  0.31005828    -0.92800
Zr186      Zr  0.98377467  0.53440480  0.47294375     2.64700
O187        O  0.98516599  0.57862659  0.46903678    -0.97800
O188        O  0.98834243  0.53459352  0.03562757    -0.79900
O189        O  0.00974499  0.54725161  0.42197065    -0.83200
O190        O  0.95683365  0.51959045  0.42247678    -2.17900
O191        O  0.93676086  0.42443199  0.35965824    -0.66600
O192        O  0.90514811  0.42927983  0.39091221    -0.51200
C193        C  0.91173519  0.41673219  0.36880101     0.72200
O194        O  0.03337655  0.47628997  0.49074315    -0.59500
O195        O  0.06407248  0.51246203  0.45811178    -0.51500
C196        C  0.05811261  0.49386066  0.48080337     0.74000
O197        O  0.93929847  0.42854763  0.49482483    -0.70900
O198        O  0.90635780  0.43106765  0.46308310    -0.49600
C199        C  0.91395557  0.41995723  0.48619697     0.75400
O200        O  0.03085664  0.47300347  0.35785133    -0.66200
O201        O  0.06224509  0.51070116  0.38813664    -0.53400
C202        C  0.05577987  0.49129534  0.36638015     0.73700
Zr203      Zr  0.98398074  0.46082556  0.37506395     2.77500
O204        O  0.98608547  0.41832787  0.37804915    -0.97000
O205        O  0.98239067  0.46097364  0.31343188    -0.77800
Zr206      Zr  0.98566210  0.46393837  0.47643753     2.70100
O207        O  0.98604785  0.42050079  0.47519879    -0.79100
O208        O  0.98952712  0.47371952  0.03990561    -0.98100
Zr209      Zr  0.03645298  0.52493294  0.42359913     2.21500
Zr210      Zr  0.93134806  0.47024061  0.42537249     2.11100
O211        O  0.95843007  0.44821551  0.42633855    -2.46800
O212        O  0.01121842  0.47578379  0.42533278    -0.78800
O213        O  0.95657838  0.48218340  0.37367323    -0.71000
O214        O  0.01134990  0.51302496  0.47537296    -2.32000
O215        O  0.01040496  0.50996118  0.37231956    -2.28200
O216        O  0.95777961  0.48516416  0.47649263    -0.72800
H217        H  0.94449607  0.52695189  0.42143954     0.79200
H218        H  0.02366858  0.51975201  0.49460409     0.80300
H219        H  0.94681338  0.42842049  0.42717298     0.82500
H220        H  0.02244750  0.51581211  0.35285454     0.80100
H221        H  0.97724588  0.54293748  0.04310792     0.43200
H222        H  0.97047190  0.46868678  0.04647723     0.42100
H223        H  0.96830628  0.40701797  0.46434965     0.41800
H224        H  0.99743997  0.42067580  0.39845440     0.39700
H225        H  0.97061939  0.46907443  0.30790945     0.42900
H226        H  0.00003032  0.52516866  0.30548079     0.37700
H227        H  0.96669510  0.57072599  0.38867367     0.43800
H228        H  0.00098415  0.59005197  0.45391923     0.40200
H229        H  0.96717265  0.40372351  0.38441046     0.45100
H230        H  0.99354623  0.54933928  0.30275092     0.43800
H231        H  0.96863111  0.57468465  0.45547015     0.44000
H232        H  0.99270099  0.45964609  0.05106995     0.44300
O233        O  0.50700190  0.94041396  0.35439306    -0.74600
O234        O  0.46835672  0.90951994  0.38329881    -0.53500
C235        C  0.48820045  0.91562831  0.36246004     0.79200
O236        O  0.55528768  0.03161250  0.48841606    -0.59200
O237        O  0.55232612  0.06540877  0.45941939    -0.52200
C238        C  0.56342918  0.05714284  0.48172129     0.71200
O239        O  0.50218879  0.93893857  0.48871451    -0.73700
O240        O  0.46584169  0.90791472  0.45635270    -0.54300
C241        C  0.48366192  0.91413480  0.48042805     0.77200
O242        O  0.55373869  0.03422798  0.35096055    -0.58900
O243        O  0.55295337  0.06696394  0.38471812    -0.52000
C244        C  0.56295941  0.05947810  0.36035045     0.73800
Zr245      Zr  0.51866704  0.98765517  0.36887844     2.54700
O246        O  0.56261718  0.98835552  0.36977989    -0.79400
O247        O  0.51636929  0.98540238  0.30718694    -0.92800
Zr248      Zr  0.51852299  0.98615786  0.46969126     2.64700
O249        O  0.55871399  0.98034299  0.46435430    -0.97800
O250        O  0.53130891  0.98831674  0.03080934    -0.79900
O251        O  0.50454669  0.96019346  0.41875210    -0.83200
O252        O  0.53394013  0.01357788  0.41994849    -2.17900
O253        O  0.46585981  0.04047948  0.35357401    -0.66600
O254        O  0.50287543  0.07054314  0.38585106    -0.51200
C255        C  0.48457603  0.06510380  0.36280417     0.72200
O256        O  0.41054232  0.94446214  0.48245754    -0.59500
O257        O  0.41363829  0.91137482  0.45209162    -0.51500
C258        C  0.40155111  0.91918075  0.47334714     0.74000
O259        O  0.46458444  0.03747585  0.48931641    -0.70900
O260        O  0.50261425  0.06893682  0.45999340    -0.49600
C261        C  0.48370951  0.06237680  0.48247892     0.75400
O262        O  0.41077979  0.94600213  0.35486929    -0.66200
O263        O  0.41548285  0.91236922  0.38191277    -0.53400
C264        C  0.40268320  0.92042989  0.36190587     0.73700
Zr265      Zr  0.44993000  0.99206072  0.36938741     2.77500
O266        O  0.40803793  0.99527706  0.37046657    -0.97000
O267        O  0.45153134  0.99166714  0.30779374    -0.77800
Zr268      Zr  0.44969009  0.99050227  0.47030759     2.70100
O269        O  0.40866640  0.99526202  0.47103880    -0.79100
O270        O  0.45427280  0.98691716  0.03516637    -0.98100
Zr271      Zr  0.45534906  0.93617295  0.41876633     2.21500
Zr272      Zr  0.51329293  0.04187714  0.42131351     2.11100
O273        O  0.46392864  0.01800768  0.42053171    -2.46800
O274        O  0.43512134  0.96481248  0.41929293    -0.78800
O275        O  0.49904821  0.01675740  0.36935745    -0.71000
O276        O  0.46933023  0.96151425  0.47049728    -2.32000
O277        O  0.46947082  0.96281374  0.36782555    -2.28200
O278        O  0.49876164  0.01504047  0.47162284    -0.72800
H279        H  0.55388171  0.02477412  0.42014360     0.79200
H280        H  0.46241802  0.94934485  0.48987685     0.80300
H281        H  0.45716444  0.03088755  0.42098627     0.82500
H282        H  0.46280020  0.95091397  0.34816339     0.80100
H283        H  0.51392582  0.98532448  0.04121671     0.43200
H284        H  0.47409765  0.99489384  0.04097646     0.42100
H285        H  0.40826455  0.00192071  0.49413767     0.41800
H286        H  0.41284748  0.01170435  0.38464252     0.39700
H287        H  0.43659931  0.99515957  0.30035072     0.42900
H288        H  0.49787983  0.96942778  0.30182925     0.37700
H289        H  0.57159703  0.99764550  0.39130928     0.43800
H290        H  0.56156017  0.97511960  0.48737679     0.40200
H291        H  0.40631525  0.00095082  0.34722387     0.45100
H292        H  0.52951013  0.97920962  0.30067179     0.43800
H293        H  0.55204744  0.96323277  0.45079485     0.44000
H294        H  0.44940697  0.00053824  0.04390931     0.44300
C295        C  0.48784705  0.31581681  0.03591669     0.16700
C296        C  0.49717161  0.33513935  0.51501196    -0.32300
C297        C  0.48150156  0.35152242  0.01161654     0.21100
C298        C  0.46152841  0.34677472  0.03561234     0.03300
C299        C  0.45445701  0.32649664  0.06063992    -0.22100
C300        C  0.46825309  0.31131666  0.06033628     0.12500
S301        S  0.50220184  0.29530642  0.03974144    -0.05700
C302        C  0.48199536  0.28070514  0.07514378    -0.09200
C303        C  0.46484814  0.29124303  0.08300462    -0.25800
S304        S  0.44782267  0.36797736  0.03203994    -0.03000
C305        C  0.47150192  0.38260706  0.50172567    -0.16500
C306        C  0.48874009  0.37211753  0.49413958    -0.14500
H307        H  0.51328633  0.33928967  0.49684841     0.20900
H308        H  0.43915145  0.32294547  0.07972769     0.17000
H309        H  0.45055373  0.28454209  0.10404569     0.19500
H310        H  0.50429735  0.37995731  0.47444320     0.12800
C311        C  0.48098631  0.11389942  0.04385837     0.16700
C312        C  0.47410119  0.12669149  0.06940658    -0.32300
C313        C  0.48596239  0.15551481  0.06790792     0.21100
C314        C  0.50381858  0.17100230  0.04206357     0.03300
C315        C  0.51093002  0.15822071  0.01661376    -0.22100
C316        C  0.49910157  0.12933867  0.01818016     0.12500
S317        S  0.46818484  0.07909585  0.04084609    -0.05700
C318        C  0.48367042  0.08475344  0.50213992    -0.09200
C319        C  0.50212700  0.11273015  0.49694282    -0.25800
S320        S  0.51490649  0.20559640  0.04409522    -0.03000
C321        C  0.49541439  0.19909266  0.08035735    -0.16500
C322        C  0.48124034  0.17149873  0.09003390    -0.14500
H323        H  0.45989684  0.11466392  0.08942246     0.20900
H324        H  0.52862615  0.17013957  0.50433377     0.17000
H325        H  0.51823786  0.12101443  0.47793705     0.19500
H326        H  0.46738809  0.16339612  0.11148683     0.12800
C327        C  0.49650050  0.32149162  0.30072178     0.16700
C328        C  0.50386395  0.34133527  0.32647584    -0.32300
C329        C  0.49044541  0.35695111  0.32692489     0.21100
C330        C  0.47060168  0.35294662  0.30286637     0.03300
C331        C  0.46340780  0.33329358  0.27707435    -0.22100
C332        C  0.47684252  0.31779307  0.27653522     0.12500
S333        S  0.50937539  0.29956351  0.29633668    -0.05700
C334        C  0.48811673  0.28546335  0.26144190    -0.09200
C335        C  0.47217260  0.29739264  0.25379414    -0.25800
S336        S  0.45649897  0.37367385  0.30777437    -0.03000
C337        C  0.47766119  0.38821148  0.34255241    -0.16500
C338        C  0.49461044  0.37720098  0.34980849    -0.14500
H339        H  0.51919483  0.34432291  0.34544530     0.20900
H340        H  0.44787892  0.33011519  0.25830418     0.17000
H341        H  0.45722842  0.29079643  0.23330075     0.19500
H342        H  0.50922710  0.38368873  0.37065738     0.12800
C343        C  0.46483323  0.14507797  0.27924007     0.16700
C344        C  0.45711785  0.11740118  0.28545553    -0.32300
C345        C  0.47147880  0.11211793  0.31087498     0.21100
C346        C  0.49247821  0.13341021  0.32946618     0.03300
C347        C  0.50009915  0.16108142  0.32338923    -0.22100
C348        C  0.48580366  0.16635603  0.29786222     0.12500
S349        S  0.45086710  0.15591098  0.24841903    -0.05700
C350        C  0.47358884  0.18955067  0.26070043    -0.09200
C351        C  0.49077332  0.19187720  0.28751223    -0.25800
S352        S  0.50736229  0.12265519  0.35912033    -0.03000
C353        C  0.48498994  0.08903645  0.34636520    -0.16500
C354        C  0.46712356  0.08661772  0.32040594    -0.14500
H355        H  0.44084178  0.10072923  0.27086353     0.20900
H356        H  0.51659481  0.17777818  0.33772057     0.17000
H357        H  0.50681882  0.21129367  0.29800348     0.19500
H358        H  0.45164943  0.06722637  0.30923448     0.12800
C359        C  0.62261089  0.49159145  0.33549656     0.16700
C360        C  0.64373349  0.48573198  0.32870244    -0.32300
C361        C  0.66339025  0.50193076  0.30422746     0.21100
C362        C  0.66219439  0.52308463  0.28727588     0.03300
C363        C  0.64107570  0.52898744  0.29413675    -0.22100
C364        C  0.62132429  0.51270469  0.31853914     0.12500
S365        S  0.59680286  0.47428711  0.36424418    -0.05700
C366        C  0.58406408  0.49573220  0.35339451    -0.09200
C367        C  0.59918938  0.51514444  0.32864148    -0.25800
S368        S  0.68745506  0.53957467  0.25752549    -0.03000
C369        C  0.69963118  0.51755356  0.26786399    -0.16500
C370        C  0.68488148  0.49878657  0.29337847    -0.14500
H371        H  0.64468905  0.46913613  0.34173921     0.20900
H372        H  0.63993756  0.54537157  0.28082361     0.17000
H373        H  0.59432556  0.53030099  0.31866074     0.19500
H374        H  0.68901747  0.48292253  0.30260546     0.12800
C375        C  0.80703583  0.49220405  0.30736103     0.16700
C376        C  0.81867268  0.48400911  0.33321486    -0.32300
C377        C  0.84593183  0.48966012  0.32875455     0.21100
C378        C  0.86081710  0.50270663  0.29979593     0.03300
C379        C  0.84904793  0.51048743  0.27381651    -0.22100
C380        C  0.82195527  0.50504795  0.27839858     0.12500
S381        S  0.77469276  0.48824005  0.30822389    -0.05700
C382        C  0.78124930  0.50372357  0.26884099    -0.09200
C383        C  0.80739169  0.51178002  0.25634408    -0.25800
S384        S  0.89417669  0.50965471  0.30008346    -0.03000
C385        C  0.88821222  0.49508528  0.33981999    -0.16500
C386        C  0.86148300  0.48483629  0.35171782    -0.14500
H387        H  0.80722296  0.47421245  0.35605481     0.16400
H388        H  0.86072108  0.52089294  0.25132776     0.17000
H389        H  0.81558542  0.52241048  0.23254796     0.19500
H390        H  0.85426085  0.47564018  0.37645809     0.12800
C391        C  0.62361911  0.48986179  0.01338758     0.16700
C392        C  0.64502037  0.48407190  0.01907130    -0.32300
C393        C  0.66323390  0.49771148  0.04607565     0.21100
C394        C  0.66034905  0.51641998  0.06624854     0.03300
C395        C  0.63918134  0.52239791  0.06035815    -0.22100
C396        C  0.62085018  0.50859377  0.03363638     0.12500
S397        S  0.59420362  0.47057971  0.48990377    -0.05700
C398        C  0.58015781  0.49015825  0.50369953    -0.09200
C399        C  0.59847145  0.51105620  0.02468073    -0.25800
S400        S  0.68367392  0.53005984  0.09847840    -0.03000
C401        C  0.69740564  0.51013741  0.08503080    -0.16500
C402        C  0.68473370  0.49419364  0.05655407    -0.14500
H403        H  0.64710060  0.46927618  0.00350590     0.20900
H404        H  0.63681150  0.53682817  0.07630454     0.17000
H405        H  0.59247625  0.52441817  0.03736105     0.19500
H406        H  0.69039304  0.48021602  0.04485275     0.12800
C407        C  0.84488258  0.49748872  0.01506473     0.16700
C408        C  0.81743386  0.49071657  0.02107347    -0.32300
C409        C  0.81266484  0.50474909  0.04726863     0.21100
C410        C  0.83428338  0.52477439  0.06645446     0.03300
C411        C  0.86180025  0.53203265  0.05988786    -0.22100
C412        C  0.86656322  0.51782080  0.03389181     0.12500
S413        S  0.85555911  0.48928723  0.47919163    -0.05700
C414        C  0.88902565  0.50855502  0.49418191    -0.09200
C415        C  0.89174305  0.52116060  0.02448314    -0.25800
S416        S  0.82404530  0.53807313  0.09850940    -0.03000
C417        C  0.79018651  0.51660010  0.08586654    -0.16500
C418        C  0.78735719  0.50017664  0.05802439    -0.14500
H419        H  0.80123160  0.48176720  0.50025858     0.20900
H420        H  0.87869643  0.54760259  0.07493591     0.17000
H421        H  0.91133714  0.53591329  0.03595427     0.19500
H422        H  0.76775870  0.48500298  0.04694885     0.12800
C423        C  0.62653841  0.10708912  0.04025592     0.16700
C424        C  0.64636762  0.11897264  0.06613304    -0.32300
C425        C  0.66349781  0.14785823  0.06605393     0.21100
C426        C  0.66100404  0.16410316  0.04124239     0.03300
C427        C  0.64079493  0.15230614  0.01583771    -0.22100
C428        C  0.62365173  0.12347758  0.01598544     0.12500
S429        S  0.60430053  0.07244043  0.03534456    -0.05700
C430        C  0.58703741  0.07849505  0.50127162    -0.09200
C431        C  0.59839616  0.10659441  0.49524557    -0.25800
S432        S  0.68442451  0.19850168  0.04455688    -0.03000
C433        C  0.69767653  0.19119330  0.08016761    -0.16500
C434        C  0.68432612  0.16329957  0.08871192    -0.14500
H435        H  0.64851716  0.10624752  0.08528014     0.20900
H436        H  0.63870876  0.16501977  0.99660760     0.17000
H437        H  0.59141460  0.11543476  0.47579737     0.19500
H438        H  0.68981645  0.15468758  0.10995487     0.12800
C439        C  0.80905047  0.32127069  0.04342463     0.16700
C440        C  0.82049596  0.34032276  0.51284780    -0.32300
C441        C  0.84961569  0.35985884  0.01968343     0.21100
C442        C  0.86544242  0.35904356  0.04635609     0.03300
C443        C  0.85328909  0.33977489  0.07263178    -0.22100
C444        C  0.82477153  0.32102555  0.07056224     0.12500
S445        S  0.77517189  0.29558654  0.04456010    -0.05700
C446        C  0.78214796  0.28458118  0.08231016    -0.09200
C447        C  0.80941385  0.30029446  0.09314611    -0.25800
S448        S  0.89982387  0.38300482  0.04381753    -0.03000
C449        C  0.89213523  0.39556476  0.50419755    -0.16500
C450        C  0.86474982  0.38055711  0.49329480    -0.14500
H451        H  0.80839003  0.34071024  0.49156261     0.20900
H452        H  0.86558468  0.33922076  0.09359065     0.17000
H453        H  0.81780214  0.29619792  0.11578230     0.19500
H454        H  0.85677682  0.38492339  0.47047577     0.12800
C455        C  0.66063651  0.16515509  0.30582433     0.16700
C456        C  0.64074011  0.15300297  0.33141799    -0.32300
C457        C  0.62176104  0.12452816  0.32899608     0.21100
C458        C  0.62263300  0.10883029  0.30236928     0.03300
C459        C  0.64227030  0.12106017  0.27652988    -0.22100
C460        C  0.66116483  0.14955595  0.27887409     0.12500
S461        S  0.68581854  0.19922535  0.30451765    -0.05700
C462        C  0.69693194  0.19261851  0.26682214    -0.09200
C463        C  0.68183696  0.16518982  0.25634098    -0.25800
S464        S  0.59838737  0.07448347  0.30454241    -0.03000
C465        C  0.58660921  0.08132458  0.34149598    -0.16500
C466        C  0.60100726  0.10889670  0.35144920    -0.14500
H467        H  0.64018513  0.16517565  0.35239632     0.20900
H468        H  0.64288417  0.10886796  0.25561170     0.17000
H469        H  0.68596093  0.15703165  0.23363766     0.19500
H470        H  0.59664319  0.11704171  0.37399221     0.12800
C471        C  0.83413443  0.31733599  0.28221745     0.16700
C472        C  0.86120893  0.33941328  0.28702254    -0.32300
C473        C  0.86655197  0.35602720  0.31584748     0.21100
C474        C  0.84582142  0.35085887  0.33887332     0.03300
C475        C  0.81892426  0.32824577  0.33459182    -0.22100
C476        C  0.81357922  0.31166584  0.30567952     0.12500
S477        S  0.82307881  0.29621140  0.24760731    -0.05700
C478        C  0.79024886  0.27907993  0.26486426    -0.09200
C479        C  0.78846793  0.28958469  0.29611870    -0.25800
S480        S  0.85601116  0.37459618  0.37084922    -0.03000
C481        C  0.88875412  0.39142187  0.35343892    -0.16500
C482        C  0.89132607  0.37903746  0.32430544    -0.14500
H483        H  0.87725120  0.34386608  0.26863769     0.20900
H484        H  0.80271160  0.32417761  0.35255577     0.17000
H485        H  0.76961424  0.28223077  0.31055053     0.19500
H486        H  0.91016116  0.38675980  0.30971793     0.12800
C487        C  0.34124832  0.46764729  0.30814717     0.16700
C488        C  0.32116956  0.45974631  0.28260103    -0.32300
C489        C  0.30283229  0.46996116  0.28441301     0.21100
C490        C  0.30397442  0.48675670  0.31089686     0.03300
C491        C  0.32410899  0.49471710  0.33645229    -0.22100
C492        C  0.34288869  0.48502537  0.33421153     0.12500
S493        S  0.36563157  0.45781878  0.31009597    -0.05700
C494        C  0.37865953  0.47779169  0.34607066    -0.09200
C495        C  0.36446939  0.49110557  0.35595485    -0.25800
S496        S  0.27977710  0.49685457  0.30844094    -0.03000
C497        C  0.26834817  0.47880123  0.27079946    -0.16500
C498        C  0.28257921  0.46541684  0.26131049    -0.14500
H499        H  0.32012251  0.44650636  0.26195955     0.20900
H500        H  0.32531412  0.50816434  0.35691897     0.17000
H501        H  0.36954918  0.50436139  0.37796245     0.19500
H502        H  0.27836037  0.45293539  0.23872953     0.12800
C503        C  0.12173023  0.49252258  0.33711631     0.16700
C504        C  0.14838678  0.49624455  0.33403382    -0.32300
C505        C  0.15486003  0.48767277  0.30379139     0.21100
C506        C  0.13559959  0.47581511  0.27787233     0.03300
C507        C  0.10879472  0.47170414  0.28113581    -0.22100
C508        C  0.10233108  0.48032483  0.31134663     0.12500
S509        S  0.11030173  0.50258792  0.37119559    -0.05700
C510        C  0.07889877  0.48989939  0.35076767    -0.09200
C511        C  0.07754902  0.47850939  0.31916522    -0.25800
S512        S  0.14777123  0.46771169  0.24281935    -0.03000
C513        C  0.17937719  0.48049983  0.26310434    -0.16500
C514        C  0.17991712  0.49027632  0.29561223    -0.14500
H515        H  0.16353647  0.50575684  0.35414623     0.20900
H516        H  0.09375513  0.46249991  0.26085612     0.17000
H517        H  0.05960001  0.46981268  0.30263298     0.19500
H518        H  0.19782338  0.49946304  0.31218173     0.12800
C519        C  0.34665226  0.47433419  0.04298967     0.16700
C520        C  0.32685261  0.46620118  0.06876003    -0.32300
C521        C  0.31102234  0.47929595  0.07016119     0.21100
C522        C  0.31479872  0.49962443  0.04701593     0.03300
C523        C  0.32703850  0.49780615  0.51891742    -0.22100
C524        C  0.35078617  0.49502121  0.02023142     0.12500
S525        S  0.36700772  0.46011256  0.03600255    -0.05700
C526        C  0.37678402  0.47533696  0.50379628    -0.09200
C527        C  0.36509546  0.49167816  0.49704683    -0.25800
S528        S  0.29214928  0.51151796  0.05132500    -0.03000
C529        C  0.27758640  0.48909304  0.08491929    -0.16500
C530        C  0.28991729  0.47342393  0.09230311    -0.14500
H531        H  0.32353996  0.44998692  0.08648539     0.20900
H532        H  0.33020322  0.51369550  0.50075773     0.17000
H533        H  0.37181119  0.50710504  0.47717538     0.19500
H534        H  0.28306407  0.45780891  0.11196758     0.12800
C535        C  0.13716801  0.46629526  0.06348552     0.16700
C536        C  0.10960388  0.45938260  0.05794848    -0.32300
C537        C  0.10448159  0.47420014  0.03300058     0.21100
C538        C  0.12588665  0.49498423  0.01444005     0.03300
C539        C  0.15339181  0.50155847  0.01956644    -0.22100
C540        C  0.15850187  0.48673538  0.04450373     0.12500
S541        S  0.14783145  0.45225924  0.09430141    -0.05700
C542        C  0.18152627  0.47427862  0.08172054    -0.09200
C543        C  0.18396215  0.49111262  0.05446623    -0.25800
S544        S  0.11307442  0.50585897  0.47611269    -0.03000
C545        C  0.08152383  0.49266693  0.49616204    -0.16500
C546        C  0.07914073  0.47081041  0.02417682    -0.14500
H547        H  0.09294505  0.44351914  0.07288497     0.20900
H548        H  0.16676832  0.50963844  0.49430769     0.17000
H549        H  0.20340645  0.50681063  0.04375057     0.19500
H550        H  0.05969125  0.45567948  0.03545484     0.12800
C551        C  0.12702332  0.68278853  0.05678255     0.16700
C552        C  0.10021092  0.66128162  0.04986359    -0.32300
C553        C  0.09718944  0.64169608  0.02568987     0.21100
C554        C  0.11980269  0.64337373  0.00901977     0.03300
C555        C  0.14663114  0.66515809  0.01554442    -0.22100
C556        C  0.14964805  0.68478057  0.03980174     0.12500
S557        S  0.13507121  0.70756931  0.08678647    -0.05700
C558        C  0.16935597  0.72099757  0.07623607    -0.09200
C559        C  0.17402534  0.70687900  0.05062889    -0.25800
S560        S  0.11225757  0.61823832  0.48437472    -0.03000
C561        C  0.07813491  0.60334585  0.49668665    -0.16500
C562        C  0.07286854  0.61897674  0.01626436    -0.14500
H563        H  0.08252072  0.65959953  0.06319261     0.20900
H564        H  0.16446708  0.66871442  0.50515079     0.17000
H565        H  0.19425516  0.71186844  0.04141597     0.19500
H566        H  0.05277921  0.61365926  0.02633124     0.12800
C567        C  0.30195296  0.84967590  0.06070374     0.16700
C568        C  0.32554987  0.87574547  0.05612302    -0.32300
C569        C  0.34293550  0.87895654  0.02888123     0.21100
C570        C  0.33698835  0.85723721  0.00702487     0.03300
C571        C  0.31311567  0.83128232  0.01127997    -0.22100
C572        C  0.29584513  0.82800197  0.03870278     0.12500
S573        S  0.27940475  0.84116685  0.09352144    -0.05700
C574        C  0.26165452  0.80784774  0.07783666    -0.09200
C575        C  0.27251905  0.80399554  0.04813987    -0.25800
S576        S  0.35754577  0.86409204  0.47347360    -0.03000
C577        C  0.37559538  0.89757974  0.48866558    -0.16500
C578        C  0.36716529  0.90250725  0.02068449    -0.14500
H579        H  0.33043440  0.89262305  0.07344158     0.20900
H580        H  0.30664495  0.81270227  0.49579340     0.17000
H581        H  0.26451378  0.78444471  0.03495574     0.19500
H582        H  0.37564816  0.92184514  0.03447886     0.12800
C583        C  0.13082937  0.67381791  0.27557904     0.16700
C584        C  0.10375596  0.65234348  0.28162686    -0.32300
C585        C  0.09931488  0.63540901  0.30986576     0.21100
C586        C  0.12096292  0.63953768  0.33102033     0.03300
C587        C  0.14804531  0.66134529  0.32527827    -0.22100
C588        C  0.15244173  0.67845287  0.29709387     0.12500
S589        S  0.14027256  0.69606533  0.24223263    -0.05700
C590        C  0.17381026  0.71226384  0.25739007    -0.09200
C591        C  0.17720094  0.70072423  0.28699400    -0.25800
S592        S  0.11137644  0.61608649  0.36320927    -0.03000
C593        C  0.07772014  0.60090609  0.34843127    -0.16500
C594        C  0.07441673  0.61341983  0.31983946    -0.14500
H595        H  0.08688930  0.64890496  0.26491081     0.20900
H596        H  0.16493252  0.66471994  0.34192124     0.17000
H597        H  0.19670026  0.70800382  0.30016726     0.19500
H598        H  0.05492978  0.60662425  0.30682980     0.12800
C599        C  0.33740971  0.85615297  0.32762881     0.16700
C600        C  0.31650025  0.82927727  0.31924227    -0.32300
C601        C  0.29584597  0.82647876  0.29658304     0.21100
C602        C  0.29592511  0.84938471  0.28280569     0.03300
C603        C  0.31669977  0.87632480  0.29152388    -0.22100
C604        C  0.33747795  0.87914424  0.31413601     0.12500
S605        S  0.36475051  0.86380410  0.35376107    -0.05700
C606        C  0.37675302  0.89848169  0.34631003    -0.09200
C607        C  0.35994963  0.90352846  0.32490243    -0.25800
S608        S  0.26976016  0.84139872  0.25436185    -0.03000
C609        C  0.25847880  0.80680398  0.26141211    -0.16500
C610        C  0.27433106  0.80206606  0.28465912    -0.14500
H611        H  0.31654877  0.81130638  0.32955794     0.20900
H612        H  0.31693923  0.89428334  0.28069675     0.17000
H613        H  0.36408451  0.92391365  0.31734743     0.19500
H614        H  0.27087863  0.78177749  0.29152220     0.12800
C615        C  0.47897903  0.66140418  0.31094016     0.16700
C616        C  0.47186884  0.64260502  0.33795584    -0.32300
C617        C  0.48124992  0.62349581  0.33669105     0.21100
C618        C  0.49731773  0.62350471  0.30999463     0.03300
C619        C  0.50442451  0.64226407  0.28316329    -0.22100
C620        C  0.49470533  0.66098497  0.28412051     0.12500
S621        S  0.46980613  0.68626773  0.30743107    -0.05700
C622        C  0.48709058  0.69593897  0.26919332    -0.09200
C623        C  0.49926295  0.68054668  0.26006298    -0.25800
S624        S  0.50682424  0.59898145  0.31279638    -0.03000
C625        C  0.48882897  0.58820791  0.35029167    -0.16500
C626        C  0.47613719  0.60308852  0.35994329    -0.14500
H627        H  0.45947048  0.64276447  0.35887382     0.20900
H628        H  0.51684961  0.64212610  0.26226605     0.17000
H629        H  0.51143916  0.68396205  0.23741064     0.19500
H630        H  0.46392357  0.59921933  0.38266371     0.12800
C631        C  0.51020554  0.83637325  0.28173757     0.16700
C632        C  0.51739886  0.86402797  0.28691915    -0.32300
C633        C  0.50345998  0.86945961  0.31254038     0.21100
C634        C  0.48336883  0.84830444  0.33213041     0.03300
C635        C  0.47635280  0.82075412  0.32711712    -0.22100
C636        C  0.49020898  0.81533320  0.30151377     0.12500
S637        S  0.52366081  0.82522760  0.25098590    -0.05700
C638        C  0.50210535  0.79184075  0.26500811    -0.09200
C639        C  0.48558757  0.78979252  0.29219998    -0.25800
S640        S  0.46839143  0.85885640  0.36143799    -0.03000
C641        C  0.48937409  0.89223639  0.34727752    -0.16500
C642        C  0.50709969  0.89484609  0.32120650    -0.14500
H643        H  0.53288783  0.88050512  0.27140233     0.20900
H644        H  0.46054875  0.80422092  0.34227330     0.17000
H645        H  0.47021289  0.77053790  0.30370162     0.19500
H646        H  0.52165665  0.91417467  0.30911929     0.12800
C647        C  0.49806569  0.62248345  0.04683606     0.16700
C648        C  0.50602625  0.64238176  0.07253512    -0.32300
C649        C  0.49715369  0.66178517  0.06968779     0.21100
C650        C  0.48117384  0.66138559  0.04250880     0.03300
C651        C  0.47332756  0.64161342  0.01681898    -0.22100
C652        C  0.48206943  0.62219526  0.01968590     0.12500
S653        S  0.50674239  0.59724030  0.04530386    -0.05700
C654        C  0.48635276  0.58449231  0.50656951    -0.09200
C655        C  0.47049010  0.59657804  0.49924449    -0.25800
S656        S  0.47200114  0.68616547  0.04389460    -0.03000
C657        C  0.48978793  0.69743516  0.08177002    -0.16500
C658        C  0.50232615  0.68249461  0.09220952    -0.14500
H659        H  0.51847469  0.64266669  0.09382041     0.20900
H660        H  0.45012609  0.63286861  0.50164379     0.17000
H661        H  0.45537330  0.59020373  0.47896923     0.19500
H662        H  0.51458634  0.68639127  0.11498928     0.12800
C663        C  0.47060989  0.80858850  0.04629627     0.16700
C664        C  0.46384898  0.82078866  0.01961774    -0.32300
C665        C  0.47615678  0.84972145  0.01956669     0.21100
C666        C  0.49435658  0.86577431  0.04498854     0.03300
C667        C  0.50058584  0.85353569  0.07209420    -0.22100
C668        C  0.48831432  0.82460948  0.07209603     0.12500
S669        S  0.45987763  0.77414695  0.04931208    -0.05700
C670        C  0.47949386  0.78132045  0.08577056    -0.09200
C671        C  0.49310199  0.80904719  0.09512189    -0.25800
S672        S  0.49883021  0.89829311  0.54004861    -0.03000
C673        C  0.48285844  0.89166843  0.50096736    -0.16500
C674        C  0.47256717  0.86546225  0.99553443    -0.14500
H675        H  0.45009773  0.80832874  0.99937984     0.20900
H676        H  0.51484814  0.86605498  0.09191552     0.17000
H677        H  0.50698551  0.81760756  0.11661127     0.19500
H678        H  0.45918319  0.85712217  0.97358396     0.12800
C679        C  0.49069023  0.72003865  0.59854716     0.03900
C680        C  0.49642347  0.72335662  0.63343970    -0.12300
C681        C  0.49504223  0.74417715  0.65203078     0.01400
C682        C  0.48959392  0.76285180  0.63394907    -0.10800
C683        C  0.48610040  0.76116427  0.59855201     0.03900
C684        C  0.48611756  0.73931505  0.58128628    -0.10200
H685        H  0.50105539  0.70898819  0.64601345     0.09500
H686        H  0.48692099  0.77820325  0.64722092     0.07000
H687        H  0.48291238  0.73743363  0.55414283     0.06800
C688        C  0.49318646  0.72242908  0.74486128     0.03900
C689        C  0.49264544  0.72189878  0.70928639    -0.12300
C690        C  0.49761472  0.74541538  0.69012666     0.01400
C691        C  0.50374451  0.76975111  0.70795275    -0.10800
C692        C  0.50282644  0.77007391  0.74345712     0.03900
C693        C  0.49761361  0.74634528  0.76169835    -0.10200
H694        H  0.48722756  0.70253702  0.69709225     0.09500
H695        H  0.50861385  0.78849991  0.69448980     0.07000
H696        H  0.49774082  0.74673988  0.78912962     0.06800
C697        C  0.23663881  0.78424956  0.74797629     0.03900
C698        C  0.23455385  0.78673954  0.71276752    -0.12300
C699        C  0.21572932  0.76388807  0.69291233     0.01400
C700        C  0.19784118  0.73894678  0.70990467    -0.10800
C701        C  0.19778600  0.73687230  0.74531152     0.03900
C702        C  0.21791216  0.75934227  0.76417452    -0.10200
H703        H  0.24840168  0.80640728  0.70106949     0.09500
H704        H  0.18395436  0.72051372  0.69589616     0.07000
H705        H  0.21865012  0.75778762  0.79147158     0.06800
C706        C  0.23905104  0.78552908  0.60096024     0.03900
C707        C  0.23854824  0.78546013  0.63657546    -0.12300
C708        C  0.21534463  0.76540283  0.65473362     0.01400
C709        C  0.19222854  0.74576673  0.63585973    -0.10800
C710        C  0.19305278  0.74449884  0.60041146     0.03900
C711        C  0.21646658  0.76458319  0.58312176    -0.10200
H712        H  0.25694537  0.80054724  0.64977044     0.09500
H713        H  0.17356019  0.73072920  0.64847393     0.07000
H714        H  0.21679624  0.76421075  0.55570681     0.06800
C715        C  0.20539376  0.48337381  0.60325731     0.03900
C716        C  0.20673539  0.48378470  0.63874621    -0.12300
C717        C  0.22661617  0.48008570  0.65646836     0.01400
C718        C  0.24628474  0.47710842  0.63718949    -0.10800
C719        C  0.24662503  0.47888564  0.60157336     0.03900
C720        C  0.22587957  0.48162766  0.58485205    -0.10200
H721        H  0.19236596  0.48773981  0.65232358     0.09500
H722        H  0.26182146  0.47399736  0.64948935     0.07000
H723        H  0.22539041  0.48171616  0.55744130     0.06800
C724        C  0.20405073  0.47760394  0.74892318     0.03900
C725        C  0.20324029  0.47483597  0.71346816    -0.12300
C726        C  0.22698676  0.48019821  0.69471436     0.01400
C727        C  0.25113233  0.48626087  0.71296768    -0.10800
C728        C  0.25165585  0.48692888  0.74850992     0.03900
C729        C  0.22844648  0.48352601  0.76628316    -0.10200
H730        H  0.18392122  0.46880213  0.70069846     0.09500
H731        H  0.26995937  0.49090126  0.69996741     0.07000
H732        H  0.22905138  0.48438090  0.79369602     0.06800
C733        C  0.76727999  0.25671424  0.74271890     0.03900
C734        C  0.76707355  0.25434738  0.70724219    -0.12300
C735        C  0.74343964  0.23427478  0.68939338     0.01400
C736        C  0.72064057  0.21481729  0.70874600    -0.10800
C737        C  0.72112108  0.21543461  0.74439640     0.03900
C738        C  0.74420900  0.23692518  0.76108944    -0.10200
H739        H  0.78548075  0.26877867  0.69377450     0.09500
H740        H  0.70181734  0.19952977  0.69653313     0.07000
H741        H  0.74451288  0.23777997  0.78848178     0.06800
C742        C  0.75995339  0.25930344  0.59693771     0.03900
C743        C  0.73890196  0.23662951  0.57954737    -0.12300
C744        C  0.71956423  0.21281281  0.59698497     0.01400
C745        C  0.72194799  0.21150068  0.63238158    -0.10800
C746        C  0.74226844  0.23449907  0.65100017     0.03900
C747        C  0.76090340  0.25838687  0.63245923    -0.10200
H748        H  0.73776642  0.23733162  0.55220010     0.09500
H749        H  0.70734019  0.19262916  0.64502377     0.07000
H750        H  0.77583492  0.27704401  0.64523876     0.06800
C751        C  0.71967017  0.51059346  0.60524961     0.03900
C752        C  0.72043878  0.51035136  0.64066370    -0.12300
C753        C  0.74385835  0.51372681  0.65831675     0.01400
C754        C  0.76663225  0.51701988  0.63916913    -0.10800
C755        C  0.76563149  0.51570618  0.60356139     0.03900
C756        C  0.74190409  0.51235975  0.58671302    -0.10200
H757        H  0.70215931  0.50684238  0.65413152     0.09500
H758        H  0.78534993  0.52057025  0.65173134     0.07000
H759        H  0.74121585  0.51235143  0.55928452     0.06800
C760        C  0.72421950  0.51509855  0.75095163     0.03900
C761        C  0.74214543  0.50813650  0.76764426    -0.12300
C762        C  0.76147277  0.50432899  0.74935130     0.01400
C763        C  0.76144487  0.50569344  0.71386872    -0.10800
C764        C  0.74412491  0.51314290  0.69639301     0.03900
C765        C  0.72629121  0.51884986  0.71565833    -0.10200
H766        H  0.74144921  0.50635295  0.79498171     0.09500
H767        H  0.77451240  0.50002775  0.70007985     0.07000
H768        H  0.71326227  0.52545301  0.70338119     0.06800
C769        C  0.47533379  0.21313045  0.74716378     0.03900
C770        C  0.47997279  0.23714256  0.76417314    -0.12300
C771        C  0.48377150  0.26032793  0.74582023     0.01400
C772        C  0.48449968  0.26000782  0.71033059    -0.10800
C773        C  0.48002782  0.23618855  0.69257837     0.03900
C774        C  0.47446190  0.21255912  0.71162152    -0.10200
H775        H  0.47979815  0.23750806  0.79161277     0.09500
H776        H  0.48931811  0.27883738  0.69703948     0.07000
H777        H  0.46994683  0.19360985  0.69899679     0.06800
C778        C  0.49136359  0.21833565  0.60272089     0.03900
C779        C  0.48850176  0.21775406  0.63798716    -0.12300
C780        C  0.48214627  0.23624813  0.65461049     0.01400
C781        C  0.47871878  0.25531508  0.63453281    -0.10800
C782        C  0.48319769  0.25703533  0.59934338     0.03900
C783        C  0.48941049  0.23838328  0.58373414    -0.10200
H784        H  0.49192050  0.20309147  0.65202402     0.09500
H785        H  0.47309713  0.26930070  0.64607373     0.07000
H786        H  0.49172334  0.23876966  0.55647271     0.06800
O787        O  0.50351788  0.55442222  0.99679021    -0.74600
O788        O  0.46962039  0.55348950  0.96328006    -0.53500
C789        C  0.48710247  0.56324826  0.98792165     0.79200
O790        O  0.55607078  0.51482359  0.86225418    -0.59200
O791        O  0.54836650  0.47563407  0.88988588    -0.52200
C792        C  0.56228434  0.49610678  0.86970561     0.71200
O793        O  0.50934673  0.56113023  0.85946947    -0.73700
O794        O  0.47178363  0.55627567  0.88823012    -0.54300
C795        C  0.49133951  0.56837112  0.86636506     0.77200
O796        O  0.55212323  0.50946051  0.99176472    -0.58900
O797        O  0.54625997  0.47249193  0.96063145    -0.52000
C798        C  0.55923882  0.49173190  0.98259661     0.73800
Zr799      Zr  0.51523981  0.51984893  0.97866952     2.54700
O800        O  0.55715802  0.56388827  0.98957162    -0.79400
O801        O  0.51036316  0.51351725  0.54026739    -0.92800
Zr802      Zr  0.52074073  0.52629145  0.87816208     2.64700
O803        O  0.56303364  0.56983803  0.88998173    -0.97800
O804        O  0.52814718  0.53082414  0.81726450    -0.79900
O805        O  0.50567468  0.53761278  0.92863981    -0.83200
O806        O  0.53126882  0.50998067  0.92812228    -2.17900
O807        O  0.45353094  0.41479562  0.98778564    -0.66600
O808        O  0.49155750  0.42042359  0.95943444    -0.51200
C809        C  0.47166171  0.40781138  0.98065598     0.72200
O810        O  0.41410944  0.46777279  0.85372266    -0.59500
O811        O  0.41822153  0.50377048  0.88552761    -0.51500
C812        C  0.40671100  0.48538614  0.86214759     0.74000
O813        O  0.46020285  0.42002648  0.85252294    -0.70900
O814        O  0.49555918  0.42304560  0.88484502    -0.49600
C815        C  0.47740562  0.41202544  0.86108584     0.75400
O816        O  0.41008353  0.46413537  0.98835684    -0.66200
O817        O  0.41639972  0.50244609  0.95984674    -0.53400
C818        C  0.40394629  0.48302560  0.98187837     0.73700
Zr819      Zr  0.44284640  0.45014691  0.96962066     2.77500
O820        O  0.39853986  0.40896541  0.95727789    -0.97000
O821        O  0.43796857  0.44472780  0.53503909    -0.77800
Zr822      Zr  0.44910095  0.45571172  0.86932322     2.70100
O823        O  0.40529305  0.41354236  0.85798665    -0.79100
O824        O  0.45706196  0.46323631  0.80866070    -0.98100
Zr825      Zr  0.45649345  0.51560679  0.92397727     2.21500
Zr826      Zr  0.50727107  0.46078321  0.92388560     2.11100
O827        O  0.45806934  0.43832662  0.91968098    -2.46800
O828        O  0.43252819  0.46635411  0.91926459    -0.78800
O829        O  0.49176756  0.47083590  0.97533191    -0.71000
O830        O  0.47189114  0.50473305  0.87292895    -2.32000
O831        O  0.46642411  0.49901749  0.97494227    -2.28200
O832        O  0.49794560  0.47731927  0.87286556    -0.72800
H833        H  0.55104840  0.51767505  0.92916933     0.79200
H834        H  0.46700075  0.51174593  0.85321026     0.80300
H835        H  0.44995021  0.41847598  0.91828350     0.82500
H836        H  0.45989961  0.50418499  0.99460129     0.80100
H837        H  0.51992750  0.51152660  0.80903454     0.43200
H838        H  0.47458189  0.46326968  0.80474822     0.42100
H839        H  0.40762444  0.39826048  0.86696038     0.41800
H840        H  0.38847689  0.41573960  0.94311419     0.39700
H841        H  0.45729189  0.45333362  0.54336430     0.42900
H842        H  0.50857029  0.49522082  0.54471620     0.37700
H843        H  0.56066723  0.57432213  0.96811158     0.43800
H844        H  0.57665452  0.56444485  0.89731734     0.40200
H845        H  0.40293113  0.39791483  0.94159445     0.45100
H846        H  0.49196947  0.51095338  0.54593463     0.43800
H847        H  0.56961467  0.57842390  0.86744961     0.44000
H848        H  0.44263799  0.44572917  0.79826488     0.44300
O849        O  0.03192032  0.56779031  0.86115213    -0.74600
O850        O  0.06402869  0.56257731  0.89107191    -0.53500
C851        C  0.05709215  0.57544944  0.86978427     0.79200
O852        O  0.93681762  0.51986313  0.99131174    -0.59200
O853        O  0.90563721  0.48218340  0.96099327    -0.52200
C854        C  0.91188559  0.50153689  0.98283636     0.71200
O855        O  0.03025411  0.57084325  0.98530352    -0.73700
O856        O  0.06273078  0.56360065  0.95996075    -0.54300
C857        C  0.05541247  0.57766536  0.97844319     0.77200
O858        O  0.93809418  0.51217345  0.85080012    -0.58900
O859        O  0.90612661  0.47810287  0.88492651    -0.52000
C860        C  0.91302688  0.49447444  0.85926627     0.73800
Zr861      Zr  0.98487320  0.52939813  0.87304893     2.54700
O862        O  0.97983031  0.57026051  0.87072039    -0.79400
O863        O  0.99117504  0.53061626  0.81184084    -0.92800
Zr864      Zr  0.98384167  0.53228181  0.97416029     2.64700
O865        O  0.97965170  0.57361029  0.97213955    -0.97800
O866        O  0.98395829  0.53651213  0.53461940    -0.79900
O867        O  0.01068480  0.54480602  0.92392382    -0.83200
O868        O  0.95764628  0.51762255  0.92316935    -2.17900
O869        O  0.93815153  0.42368125  0.85972998    -0.66600
O870        O  0.90618210  0.42758428  0.89135805    -0.51200
C871        C  0.91297754  0.41580896  0.86843424     0.72200
O872        O  0.03354585  0.47238335  0.99202822    -0.59500
O873        O  0.06459926  0.51087228  0.96307680    -0.51500
C874        C  0.05845279  0.49095389  0.98392135     0.74000
O875        O  0.93981680  0.42700833  0.99667602    -0.70900
O876        O  0.90703648  0.42962310  0.96466137    -0.49600
C877        C  0.91454288  0.41869200  0.98813998     0.75400
O878        O  0.03237630  0.46980596  0.86311104    -0.66200
O879        O  0.06382174  0.50846118  0.89173042    -0.53400
C880        C  0.05733828  0.48839550  0.87098586     0.73700
Zr881      Zr  0.98531500  0.45827872  0.87841473     2.77500
O882        O  0.98373108  0.41429917  0.88660552    -0.97000
O883        O  0.98829218  0.45503947  0.81728404    -0.77800
Zr884      Zr  0.98627041  0.46270394  0.97979359     2.70100
O885        O  0.98590526  0.41983592  0.99243859    -0.79100
O886        O  0.98933375  0.46736703  0.53793325    -0.98100
Zr887      Zr  0.03739698  0.52250907  0.92627672     2.21500
Zr888      Zr  0.93228310  0.46824789  0.92617950     2.11100
O889        O  0.95936199  0.44615533  0.92925016    -2.46800
O890        O  0.01214491  0.47337869  0.92894540    -0.78800
O891        O  0.95843224  0.48019938  0.87508319    -0.71000
O892        O  0.01208680  0.51162220  0.97786519    -2.32000
O893        O  0.01179532  0.50746854  0.87473187    -2.28200
O894        O  0.95793864  0.48329066  0.97772105    -0.72800
H895        H  0.94523960  0.52500796  0.92186137     0.79200
H896        H  0.02440351  0.51875877  0.99719551     0.80300
H897        H  0.94771732  0.42630363  0.93022186     0.82500
H898        H  0.02397612  0.51311124  0.85548881     0.80100
H899        H  0.00277032  0.54082002  0.54157278     0.43200
H900        H  0.97543043  0.47245010  0.54480618     0.42100
H901        H  0.99466285  0.41670082  0.97248957     0.41800
H902        H  0.99276908  0.41217225  0.86622703     0.39700
H903        H  0.98188459  0.43524109  0.81305298     0.42900
H904        H  0.01067298  0.53548757  0.80848266     0.37700
H905        H  0.97774699  0.57298218  0.84632055     0.43800
H906        H  0.99040867  0.58479116  0.99189851     0.40200
H907        H  0.99705185  0.41787528  0.90522647     0.45100
H908        H  0.99058322  0.54720892  0.80414991     0.43800
H909        H  0.99073999  0.58401337  0.95221763     0.44000
H910        H  0.98168772  0.44804338  0.54582841     0.44300
O911        O  0.51037751  0.94142099  0.85622272    -0.74600
O912        O  0.47255517  0.91011031  0.88616933    -0.53500
C913        C  0.49218158  0.91652900  0.86478184     0.79200
O914        O  0.55876393  0.03328559  0.98880163    -0.59200
O915        O  0.55540778  0.06667522  0.95936392    -0.52200
C916        C  0.56678491  0.05870453  0.98161734     0.71200
O917        O  0.50773551  0.94052986  0.98978389    -0.73700
O918        O  0.46996478  0.90909197  0.95971760    -0.54300
C919        C  0.48873850  0.91564304  0.98266411     0.77200
O920        O  0.55493487  0.03534631  0.85071410    -0.58900
O921        O  0.55406243  0.06796176  0.88457644    -0.52000
C922        C  0.56384550  0.06062225  0.85980749     0.73800
Zr923      Zr  0.52095719  0.98850743  0.86951892     2.54700
O924        O  0.56579917  0.99135902  0.86457987    -0.79400
O925        O  0.51416615  0.98562872  0.80832145    -0.92800
Zr926      Zr  0.52312393  0.98736734  0.97009996     2.64700
O927        O  0.56355780  0.98282272  0.95921402    -0.97800
O928        O  0.52130346  0.98840738  0.53123144    -0.79900
O929        O  0.50811876  0.96107413  0.91956346    -0.83200
O930        O  0.53714591  0.01469601  0.92025589    -2.17900
O931        O  0.46536026  0.03965202  0.85771264    -0.66600
O932        O  0.50333130  0.06999869  0.88835113    -0.51200
C933        C  0.48418187  0.06433070  0.86645298     0.72200
O934        O  0.41450181  0.94499118  0.98677684    -0.59500
O935        O  0.41752717  0.91203980  0.95603231    -0.51500
C936        C  0.40552829  0.91975050  0.97761709     0.74000
O937        O  0.46900396  0.03777220  0.99332407    -0.70900
O938        O  0.50489610  0.06923450  0.96110591    -0.49600
C939        C  0.48718077  0.06270656  0.98507140     0.75400
O940        O  0.41390278  0.94546979  0.85738654    -0.66200
O941        O  0.41942569  0.91211739  0.88380158    -0.53400
C942        C  0.40651926  0.92000390  0.86365394     0.73700
Zr943      Zr  0.45173803  0.99172858  0.87266553     2.77500
O944        O  0.40879121  0.99301339  0.87226172    -0.97000
O945        O  0.45433234  0.99376208  0.81106646    -0.77800
Zr946      Zr  0.45355876  0.99078296  0.97373846     2.70100
O947        O  0.41296379  0.99618967  0.97592017    -0.79100
O948        O  0.45140380  0.98734646  0.53173988    -0.98100
Zr949      Zr  0.45884469  0.93651941  0.92151466     2.21500
Zr950      Zr  0.51560836  0.04220274  0.92275158     2.11100
O951        O  0.46622329  0.01783556  0.92364931    -2.46800
O952        O  0.43801795  0.96470596  0.92293880    -0.78800
O953        O  0.50076757  0.01700500  0.87104906    -0.71000
O954        O  0.47391429  0.96240771  0.97292986    -2.32000
O955        O  0.47181422  0.96298191  0.87034264    -2.28200
O956        O  0.50269188  0.01569005  0.97353787    -0.72800
H957        H  0.55707648  0.02613936  0.91973218     0.79200
H958        H  0.46757775  0.95044129  0.99252678     0.80300
H959        H  0.45913765  0.03044267  0.92452075     0.82500
H960        H  0.46500702  0.95099107  0.85078152     0.80100
H961        H  0.54047295  0.99297047  0.53664363     0.43200
H962        H  0.47115292  0.99968974  0.53765330     0.42100
H963        H  0.40751745  0.99339831  0.00007941     0.41800
H964        H  0.39645771  0.97806954  0.88799072     0.39700
H965        H  0.43675544  0.97769182  0.80317426     0.42900
H966        H  0.49942941  0.96630233  0.80386457     0.37700
H967        H  0.57021253  0.99427851  0.84012389     0.43800
H968        H  0.56521153  0.98330989  0.93423826     0.40200
H969        H  0.41330412  0.01031814  0.88431798     0.45100
H970        H  0.53115789  0.98678443  0.79905304     0.43800
H971        H  0.57951616  0.00056636  0.96688681     0.44000
H972        H  0.44196311  0.99709139  0.54037250     0.44300
C973        C  0.48932700  0.31436080  0.53956018     0.16700
C974        C  0.49496232  0.33609944  0.01099847    -0.32300
C975        C  0.48362159  0.35056011  0.51520154     0.21100
C976        C  0.46290775  0.34520874  0.53834566     0.03300
C977        C  0.45518945  0.32454330  0.56288911    -0.22100
C978        C  0.46902279  0.30946797  0.56311285     0.12500
S979        S  0.50346315  0.29366601  0.54414895    -0.05700
C980        C  0.48218524  0.27865285  0.57870029    -0.09200
C981        C  0.46488776  0.28911693  0.58566917    -0.25800
S982        S  0.44885480  0.36603032  0.53447266    -0.03000
C983        C  0.46974952  0.38375688  0.99834753    -0.16500
C984        C  0.48631308  0.37269487  0.99019939    -0.14500
H985        H  0.51054219  0.33991332  0.99218243     0.20900
H986        H  0.43929147  0.32059551  0.58127821     0.17000
H987        H  0.44997639  0.28218659  0.60605656     0.19500
H988        H  0.50139458  0.38002076  0.96996115     0.12800
C989        C  0.47549349  0.11249634  0.54095131     0.16700
C990        C  0.46748669  0.12464670  0.56606679    -0.32300
C991        C  0.48220387  0.15354472  0.56848634     0.21100
C992        C  0.50370095  0.16976070  0.54656053     0.03300
C993        C  0.51182314  0.15757982  0.52147215    -0.22100
C994        C  0.49727793  0.12856719  0.51931746     0.12500
S995        S  0.46025855  0.07776538  0.53425091    -0.05700
C996        C  0.48756011  0.08530097  0.00465141    -0.09200
C997        C  0.50308230  0.11302774  0.99564395    -0.25800
S998        S  0.51785303  0.20455395  0.55258327    -0.03000
C999        C  0.49471827  0.19700617  0.58520251    -0.16500
C1000       C  0.47717762  0.16905144  0.59097337    -0.14500
H1001       H  0.45049047  0.11210885  0.58297901     0.20900
H1002       H  0.52480529  0.17019822  0.99631073     0.17000
H1003       H  0.51630097  0.12079362  0.97359597     0.19500
H1004       H  0.46080518  0.16058464  0.60965276     0.12800
C1005       C  0.49508276  0.32172033  0.80114765     0.16700
C1006       C  0.50281261  0.34213298  0.82614771    -0.32300
C1007       C  0.48881626  0.35714010  0.82686871     0.21100
C1008       C  0.46806821  0.35210988  0.80370525     0.03300
C1009       C  0.46036292  0.33173010  0.77864771    -0.22100
C1010       C  0.47438094  0.31674951  0.77791570     0.12500
S1011       S  0.50877426  0.30052100  0.79688221    -0.05700
C1012       C  0.48623272  0.28468724  0.76359940    -0.09200
C1013       C  0.46944019  0.29571426  0.75603588    -0.25800
S1014       S  0.45388658  0.37281824  0.80862072    -0.03000
C1015       C  0.47628617  0.38863761  0.84214595    -0.16500
C1016       C  0.49353168  0.37795424  0.84906321    -0.14500
H1017       H  0.51893470  0.34604862  0.84436431     0.20900
H1018       H  0.44410359  0.32767226  0.76057619     0.17000
H1019       H  0.45377177  0.28804414  0.73632673     0.19500
H1020       H  0.50896615  0.38525386  0.86903272     0.12800
C1021       C  0.46451246  0.14441485  0.78337015     0.16700
C1022       C  0.45734738  0.11680549  0.78871930    -0.32300
C1023       C  0.47091612  0.11133239  0.81490949     0.21100
C1024       C  0.49092199  0.13244495  0.83473366     0.03300
C1025       C  0.49790438  0.16006067  0.82960536    -0.22100
C1026       C  0.48412145  0.16549757  0.80356945     0.12500
S1027       S  0.45136237  0.15534671  0.75183238    -0.05700
C1028       C  0.47242016  0.18882085  0.76594756    -0.09200
C1029       C  0.48848597  0.19101249  0.79399603    -0.25800
S1030       S  0.50541578  0.12156042  0.86468747    -0.03000
C1031       C  0.48394274  0.08812143  0.85071642    -0.16500
C1032       C  0.46671468  0.08581607  0.82404403    -0.14500
H1033       H  0.44203269  0.10033249  0.77295204     0.20900
H1034       H  0.51351422  0.17658060  0.84505534     0.17000
H1035       H  0.50352522  0.21034186  0.80572077     0.19500
H1036       H  0.45196855  0.06654673  0.81194221     0.12800
C1037       C  0.62658621  0.49452622  0.83872972     0.16700
C1038       C  0.64753337  0.48827208  0.83256667    -0.32300
C1039       C  0.66701023  0.50353327  0.80746914     0.21100
C1040       C  0.66592208  0.52433947  0.78952704     0.03300
C1041       C  0.64516306  0.53087494  0.79601851    -0.22100
C1042       C  0.62544257  0.51534045  0.82084107     0.12500
S1043       S  0.60036317  0.47749914  0.86705735    -0.05700
C1044       C  0.58747969  0.49847351  0.85458466    -0.09200
C1045       C  0.60307406  0.51778874  0.82992473    -0.25800
S1046       S  0.69054399  0.53924172  0.75874633    -0.03000
C1047       C  0.70237711  0.51704968  0.76999349    -0.16500
C1048       C  0.68793941  0.49941407  0.79660030    -0.14500
H1049       H  0.64825784  0.47179832  0.84622423     0.20900
H1050       H  0.64403789  0.54689329  0.78178980     0.17000
H1051       H  0.59816735  0.53263393  0.81899516     0.19500
H1052       H  0.69170928  0.48348296  0.80647394     0.12800
C1053       C  0.80814956  0.48744011  0.80469658     0.16700
C1054       C  0.82016030  0.47956962  0.83042774    -0.32300
C1055       C  0.84778257  0.48631031  0.82627294     0.21100
C1056       C  0.86272407  0.50003493  0.79763843     0.03300
C1057       C  0.85052887  0.50738376  0.77159204    -0.22100
C1058       C  0.82301195  0.50090391  0.77594646     0.12500
S1059       S  0.77553440  0.48281875  0.80590713    -0.05700
C1060       C  0.78184342  0.49904224  0.76704847    -0.09200
C1061       C  0.80805774  0.50752932  0.75425697    -0.25800
S1062       S  0.89658536  0.50831254  0.79863733    -0.03000
C1063       C  0.89063680  0.49333536  0.83822284    -0.16500
C1064       C  0.86358894  0.48203358  0.84944316    -0.14500
H1065       H  0.80873890  0.46935576  0.85312692     0.16400
H1066       H  0.86221707  0.51838697  0.74936900     0.17000
H1067       H  0.81614317  0.51872674  0.73076033     0.19500
H1068       H  0.85621222  0.47238194  0.87393477     0.12800
C1069       C  0.61928459  0.48630421  0.52002829     0.16700
C1070       C  0.64112270  0.48114974  0.52521578    -0.32300
C1071       C  0.65994404  0.49565405  0.55130961     0.21100
C1072       C  0.65705287  0.51435227  0.57148968     0.03300
C1073       C  0.63542755  0.51980870  0.56599958    -0.22100
C1074       C  0.61665206  0.50535357  0.53980329     0.12500
S1075       S  0.59876964  0.47482743  0.98278455    -0.05700
C1076       C  0.58435704  0.49379520  0.99771791    -0.09200
C1077       C  0.59424881  0.50772885  0.53049579    -0.25800
S1078       S  0.68128136  0.52886713  0.60278216    -0.03000
C1079       C  0.69568065  0.50977113  0.58826024    -0.16500
C1080       C  0.68227644  0.49315431  0.56057673    -0.14500
H1081       H  0.64325421  0.46635502  0.50971327     0.20900
H1082       H  0.63320866  0.53449436  0.58162297     0.17000
H1083       H  0.58852835  0.52160152  0.54236933     0.19500
H1084       H  0.68810744  0.47943705  0.54851681     0.12800
C1085       C  0.84544373  0.50359102  0.51011370     0.16700
C1086       C  0.81796119  0.49667623  0.51609172    -0.32300
C1087       C  0.81280283  0.50897757  0.54393342     0.21100
C1088       C  0.83413601  0.52758785  0.56467647     0.03300
C1089       C  0.86172138  0.53495409  0.55829942    -0.22100
C1090       C  0.86683844  0.52238132  0.53066880     0.12500
S1091       S  0.85478185  0.48175293  0.98575338    -0.05700
C1092       C  0.88861394  0.50288087  0.99870568    -0.09200
C1093       C  0.89199793  0.52559343  0.52140049    -0.25800
S1094       S  0.82341760  0.53893231  0.59828685    -0.03000
C1095       C  0.78971431  0.51838900  0.58438934    -0.16500
C1096       C  0.78731278  0.50379946  0.55489346    -0.14500
H1097       H  0.80047817  0.47475778  0.00647365     0.20900
H1098       H  0.87835756  0.54925800  0.57471750     0.17000
H1099       H  0.91134674  0.53892574  0.53437833     0.19500
H1100       H  0.76789142  0.48938732  0.54278889     0.12800
C1101       C  0.62449594  0.10542326  0.53942878     0.16700
C1102       C  0.64577141  0.11740757  0.56374478    -0.32300
C1103       C  0.66229652  0.14644414  0.56410700     0.21100
C1104       C  0.65784947  0.16266543  0.54115684     0.03300
C1105       C  0.63640069  0.15074625  0.51728292    -0.22100
C1106       C  0.61991071  0.12185528  0.51697942     0.12500
S1107       S  0.60252318  0.07066501  0.53404539    -0.05700
C1108       C  0.59049671  0.08017940  0.00072716    -0.09200
C1109       C  0.60289654  0.10818425  0.99333397    -0.25800
S1110       S  0.68039822  0.19728715  0.54478550    -0.03000
C1111       C  0.69601414  0.19022104  0.57807780    -0.16500
C1112       C  0.68406389  0.16217225  0.58563359    -0.14500
H1113       H  0.64938742  0.10467999  0.58141523     0.20900
H1114       H  0.63286271  0.16345774  0.49949006     0.17000
H1115       H  0.59699761  0.11690130  0.97257096     0.19500
H1116       H  0.69108490  0.15372091  0.60549622     0.12800
C1117       C  0.80822365  0.32060616  0.53882182     0.16700
C1118       C  0.82109828  0.34094752  0.01748196    -0.32300
C1119       C  0.84900759  0.35947103  0.51547935     0.21100
C1120       C  0.86456789  0.35882017  0.54256760     0.03300
C1121       C  0.85228112  0.33926813  0.56851227    -0.22100
C1122       C  0.82383508  0.32031687  0.56603951     0.12500
S1123       S  0.77416787  0.29510296  0.54025503    -0.05700
C1124       C  0.78104747  0.28397919  0.57805894    -0.09200
C1125       C  0.80842032  0.29958658  0.58862057    -0.25800
S1126       S  0.89878323  0.38356681  0.54125569    -0.03000
C1127       C  0.89277008  0.39492904  0.00693546    -0.16500
C1128       C  0.86516140  0.38055301  0.99704900    -0.14500
H1129       H  0.80885661  0.34130083  0.99633540     0.20900
H1130       H  0.86440223  0.33883088  0.58974627     0.17000
H1131       H  0.81687139  0.29552082  0.61121598     0.19500
H1132       H  0.85692475  0.38496143  0.97450234     0.12800
C1133       C  0.66117994  0.16644542  0.80382107     0.16700
C1134       C  0.64179955  0.15424585  0.83005352    -0.32300
C1135       C  0.62238207  0.12582323  0.82757324     0.21100
C1136       C  0.62233291  0.11024278  0.80024886     0.03300
C1137       C  0.64151412  0.12248906  0.77390279    -0.22100
C1138       C  0.66086122  0.15090258  0.77633220     0.12500
S1139       S  0.68686862  0.20042924  0.80237124    -0.05700
C1140       C  0.69724406  0.19381960  0.76405264    -0.09200
C1141       C  0.68133027  0.16644291  0.75343662    -0.25800
S1142       S  0.59762396  0.07599034  0.80227082    -0.03000
C1143       C  0.58695388  0.08263206  0.84024173    -0.16500
C1144       C  0.60201249  0.11012492  0.85054610    -0.14500
H1145       H  0.64196298  0.16633674  0.85155267     0.20900
H1146       H  0.64146592  0.11034853  0.75252236     0.17000
H1147       H  0.68483497  0.15815518  0.73042045     0.19500
H1148       H  0.59844197  0.11814177  0.87376036     0.12800
C1149       C  0.83536364  0.31897292  0.77747048     0.16700
C1150       C  0.86259855  0.34074550  0.78300634    -0.32300
C1151       C  0.86775983  0.35724079  0.81202771     0.21100
C1152       C  0.84667024  0.35229038  0.83436199     0.03300
C1153       C  0.81956081  0.33042851  0.82895369    -0.22100
C1154       C  0.81443725  0.31389878  0.80007714     0.12500
S1155       S  0.82459109  0.29692430  0.74357156    -0.05700
C1156       C  0.79144246  0.28027904  0.76016605    -0.09200
C1157       C  0.78934594  0.29183463  0.79040816    -0.25800
S1158       S  0.85678955  0.37495649  0.86749829    -0.03000
C1159       C  0.88999026  0.39134933  0.85145285    -0.16500
C1160       C  0.89275043  0.37954003  0.82182150    -0.14500
H1161       H  0.87899574  0.34474605  0.76537384     0.20900
H1162       H  0.80311334  0.32655928  0.84643939     0.17000
H1163       H  0.77032994  0.28491992  0.80433557     0.19500
H1164       H  0.91191140  0.38705375  0.80798861     0.12800
C1165       C  0.34699000  0.47590093  0.80460191     0.16700
C1166       C  0.32656091  0.46794857  0.77953732    -0.32300
C1167       C  0.31002542  0.48027592  0.78008443     0.21100
C1168       C  0.31346394  0.49950287  0.80461110     0.03300
C1169       C  0.33419414  0.50776300  0.82939726    -0.22100
C1170       C  0.35084481  0.49553428  0.82875942     0.12500
S1171       S  0.36874993  0.46292910  0.80868119    -0.05700
C1172       C  0.38347673  0.48439838  0.84314210    -0.09200
C1173       C  0.37187895  0.50062408  0.85086753    -0.25800
S1174       S  0.29026712  0.51092256  0.80184537    -0.03000
C1175       C  0.27609893  0.48988326  0.76692236    -0.16500
C1176       C  0.28884273  0.47491787  0.75819592    -0.14500
H1177       H  0.32353407  0.45265556  0.76060491     0.20900
H1178       H  0.33703331  0.52283496  0.84854420     0.17000
H1179       H  0.37839450  0.51526307  0.87161424     0.19500
H1180       H  0.28241083  0.46029082  0.73743763     0.12800
C1181       C  0.12381662  0.49136601  0.83977654     0.16700
C1182       C  0.15115359  0.49762370  0.83443900    -0.32300
C1183       C  0.15626897  0.48501854  0.80690759     0.21100
C1184       C  0.13507446  0.46682382  0.78572665     0.03300
C1185       C  0.10758925  0.46018676  0.79137738    -0.22100
C1186       C  0.10250594  0.47297413  0.81881595     0.12500
S1187       S  0.11376554  0.50565174  0.87076884    -0.05700
C1188       C  0.08038645  0.48664922  0.85549291    -0.09200
C1189       C  0.07742494  0.47000498  0.82787231    -0.25800
S1190       S  0.14594345  0.45503401  0.75264693    -0.03000
C1191       C  0.17955349  0.47485292  0.76742049    -0.16500
C1192       C  0.18168615  0.48953007  0.79675927    -0.14500
H1193       H  0.16781955  0.51214509  0.85065594     0.20900
H1194       H  0.09100643  0.44614435  0.77471338     0.17000
H1195       H  0.05808228  0.45683307  0.81479269     0.19500
H1196       H  0.20095461  0.50370882  0.80932072     0.12800
C1197       C  0.33954275  0.46509473  0.54188288     0.16700
C1198       C  0.31876869  0.45622102  0.56657821    -0.32300
C1199       C  0.30226553  0.46864812  0.56685665     0.21100
C1200       C  0.30612012  0.48875859  0.54334474     0.03300
C1201       C  0.33506058  0.50821081  0.02178616    -0.22100
C1202       C  0.34367741  0.48558748  0.51881886     0.12500
S1203       S  0.36161273  0.45254099  0.53707639    -0.05700
C1204       C  0.38150089  0.48242742  0.00217450    -0.09200
C1205       C  0.37088953  0.49990481  0.99686870    -0.25800
S1206       S  0.28377077  0.50098578  0.54738348    -0.03000
C1207       C  0.26924264  0.47919721  0.58162639    -0.16500
C1208       C  0.28124404  0.46319264  0.58908927    -0.14500
H1209       H  0.31563766  0.44036818  0.58477941     0.20900
H1210       H  0.33799603  0.52403801  0.00365732     0.17000
H1211       H  0.37741219  0.51524805  0.97691858     0.19500
H1212       H  0.27485470  0.44828606  0.60953407     0.12800
C1213       C  0.13843796  0.47943063  0.57019923     0.16700
C1214       C  0.11158707  0.47496686  0.56626977    -0.32300
C1215       C  0.10519272  0.48344964  0.53585822     0.21100
C1216       C  0.12469719  0.49592779  0.51042862     0.03300
C1217       C  0.15150444  0.49997566  0.51413822    -0.22100
C1218       C  0.15789603  0.49143251  0.54467213     0.12500
S1219       S  0.15021865  0.47128155  0.60566116    -0.05700
C1220       C  0.18192456  0.48395479  0.58611560    -0.09200
C1221       C  0.18288324  0.49394276  0.55353187    -0.25800
S1222       S  0.11556369  0.51120351  0.98622185    -0.03000
C1223       C  0.08190078  0.48947475  0.99908719    -0.16500
C1224       C  0.08031166  0.48126672  0.52769677    -0.14500
H1225       H  0.09640965  0.46555244  0.58623781     0.20900
H1226       H  0.17012745  0.51786171  0.00517452     0.17000
H1227       H  0.20092873  0.50298258  0.53735813     0.19500
H1228       H  0.06235665  0.47234945  0.54404932     0.12800
C1229       C  0.12751559  0.68190726  0.56343340     0.16700
C1230       C  0.10081390  0.65959011  0.55727146    -0.32300
C1231       C  0.09773823  0.64064881  0.53191713     0.21100
C1232       C  0.12022486  0.64374803  0.51354534     0.03300
C1233       C  0.14685425  0.66625145  0.51942517    -0.22100
C1234       C  0.14992305  0.68521490  0.54471803     0.12500
S1235       S  0.13587715  0.70625686  0.59430749    -0.05700
C1236       C  0.17001167  0.72119934  0.58184314    -0.09200
C1237       C  0.17427264  0.70785426  0.55489076    -0.25800
S1238       S  0.11176610  0.61684691  0.98160767    -0.03000
C1239       C  0.07758964  0.60352821  0.99272555    -0.16500
C1240       C  0.07352293  0.61756494  0.52229331    -0.14500
H1241       H  0.08326621  0.65691633  0.57187764     0.20900
H1242       H  0.16437282  0.66649878  0.00272420     0.17000
H1243       H  0.19431812  0.71367506  0.54426751     0.19500
H1244       H  0.05349391  0.61138439  0.53324630     0.12800
C1245       C  0.30276405  0.84905081  0.56300091     0.16700
C1246       C  0.32528160  0.87537468  0.55621542    -0.32300
C1247       C  0.34097284  0.87845554  0.52726116     0.21100
C1248       C  0.33467219  0.85631511  0.50598286     0.03300
C1249       C  0.31170619  0.83006202  0.51235230    -0.22100
C1250       C  0.29591515  0.82700940  0.54133228     0.12500
S1251       S  0.28200429  0.84093046  0.59765293    -0.05700
C1252       C  0.26337195  0.80744064  0.58265062    -0.09200
C1253       C  0.27314901  0.80311553  0.55229002    -0.25800
S1254       S  0.36115052  0.86509018  0.97617560    -0.03000
C1255       C  0.37940243  0.89809497  0.99267585    -0.16500
C1256       C  0.36413239  0.90223305  0.51717939    -0.14500
H1257       H  0.33062596  0.89262087  0.57309482     0.20900
H1258       H  0.30850779  0.81424367  0.99436472     0.17000
H1259       H  0.26444439  0.78343381  0.53926118     0.19500
H1260       H  0.37277113  0.92180596  0.53047184     0.12800
C1261       C  0.13288075  0.67224446  0.77945369     0.16700
C1262       C  0.10591711  0.65046256  0.78538576    -0.32300
C1263       C  0.10134923  0.63451328  0.81466447     0.21100
C1264       C  0.12275735  0.63979662  0.83688555     0.03300
C1265       C  0.14973835  0.66177026  0.83107457    -0.22100
C1266       C  0.15424927  0.67794924  0.80192457     0.12500
S1267       S  0.14241232  0.69401156  0.74556295    -0.05700
C1268       C  0.17561032  0.71156345  0.76195404    -0.09200
C1269       C  0.17884070  0.70057300  0.79210629    -0.25800
S1270       S  0.11307426  0.61727604  0.87020425    -0.03000
C1271       C  0.07977278  0.60064393  0.85408422    -0.16500
C1272       C  0.07659730  0.61231517  0.82459504    -0.14500
H1273       H  0.08920846  0.64613989  0.76791974     0.20900
H1274       H  0.16646126  0.66605542  0.84849193     0.17000
H1275       H  0.19807910  0.70867140  0.80610836     0.19500
H1276       H  0.05735098  0.60452143  0.81066246     0.12800
C1277       C  0.34169289  0.85609820  0.82823047     0.16700
C1278       C  0.31999917  0.82931817  0.82110576    -0.32300
C1279       C  0.29835764  0.82666048  0.80035183     0.21100
C1280       C  0.29845303  0.84962807  0.78676641     0.03300
C1281       C  0.31993718  0.87653074  0.79444436    -0.22100
C1282       C  0.34147259  0.87918386  0.81560377     0.12500
S1283       S  0.36982911  0.86347110  0.85273778    -0.05700
C1284       C  0.38124062  0.89816366  0.84686612    -0.09200
C1285       C  0.36411538  0.90344103  0.82630160    -0.25800
S1286       S  0.27145874  0.84167265  0.75965440    -0.03000
C1287       C  0.25971310  0.80701302  0.76718784    -0.16500
C1288       C  0.27597854  0.80227043  0.78977931    -0.14500
H1289       H  0.32010271  0.81128611  0.83109097     0.20900
H1290       H  0.32003755  0.89455798  0.78407291     0.17000
H1291       H  0.36783670  0.92390406  0.81988442     0.19500
H1292       H  0.27245389  0.78195647  0.79663657     0.12800
C1293       C  0.48014006  0.66253924  0.80517364     0.16700
C1294       C  0.47285983  0.64355399  0.83198320    -0.32300
C1295       C  0.48342521  0.62540113  0.83154356     0.21100
C1296       C  0.50054325  0.62625278  0.80566066     0.03300
C1297       C  0.50728109  0.64475793  0.77856443    -0.22100
C1298       C  0.49664857  0.66276787  0.77890951     0.12500
S1299       S  0.47105368  0.68750870  0.80189906    -0.05700
C1300       C  0.48941287  0.69809344  0.76447828    -0.09200
C1301       C  0.50169554  0.68279187  0.75531652    -0.25800
S1302       S  0.51203024  0.60330072  0.81010793    -0.03000
C1303       C  0.49301169  0.59175343  0.84685989    -0.16500
C1304       C  0.47885818  0.60546701  0.85522198    -0.14500
H1305       H  0.45986182  0.64319754  0.85247846     0.20900
H1306       H  0.52053931  0.64532757  0.75826930     0.17000
H1307       H  0.51455146  0.68680561  0.73317439     0.19500
H1308       H  0.46591073  0.60105702  0.87735549     0.12800
C1309       C  0.51402835  0.83909501  0.77950891     0.16700
C1310       C  0.52081112  0.86659919  0.78533455    -0.32300
C1311       C  0.50760022  0.87156718  0.81236841     0.21100
C1312       C  0.48868930  0.85016044  0.83270630     0.03300
C1313       C  0.48211091  0.82283469  0.82701858    -0.22100
C1314       C  0.49512741  0.81785619  0.80000360     0.12500
S1315       S  0.52646517  0.82821977  0.74712159    -0.05700
C1316       C  0.50578163  0.79468149  0.76138731    -0.09200
C1317       C  0.49044004  0.79248421  0.78990046    -0.25800
S1318       S  0.47431479  0.86004809  0.86364272    -0.03000
C1319       C  0.49386582  0.89351838  0.84914084    -0.16500
C1320       C  0.51075878  0.89663123  0.82179005    -0.14500
H1321       H  0.53535720  0.88327407  0.76923652     0.20900
H1322       H  0.46714790  0.80608411  0.84269183     0.17000
H1323       H  0.47571016  0.77318497  0.80189135     0.19500
H1324       H  0.52429705  0.91608047  0.80922643     0.12800
C1325       C  0.49701063  0.62172188  0.54433306     0.16700
C1326       C  0.50648615  0.64275620  0.56863497    -0.32300
C1327       C  0.49527920  0.66024179  0.56791114     0.21100
C1328       C  0.47547821  0.65689803  0.54414132     0.03300
C1329       C  0.46559137  0.63552009  0.52024145    -0.22100
C1330       C  0.47686758  0.61808244  0.52089232     0.12500
S1331       S  0.50894435  0.59920227  0.54010111    -0.05700
C1332       C  0.48868872  0.58631725  0.00760707    -0.09200
C1333       C  0.47649476  0.60142496  0.99719363    -0.25800
S1334       S  0.46536325  0.68095166  0.54658257    -0.03000
C1335       C  0.48796224  0.69569977  0.58022082    -0.16500
C1336       C  0.50238478  0.68230970  0.58885136    -0.14500
H1337       H  0.52220848  0.64563139  0.58695869     0.20900
H1338       H  0.46083059  0.64130023  0.99557909     0.17000
H1339       H  0.46454949  0.59769590  0.97412801     0.19500
H1340       H  0.51767814  0.68862859  0.60888453     0.12800
C1341       C  0.47199466  0.80821402  0.53972285     0.16700
C1342       C  0.46483669  0.82006607  0.51298367    -0.32300
C1343       C  0.47356288  0.84838007  0.51518443     0.21100
C1344       C  0.48844680  0.86401472  0.54297918     0.03300
C1345       C  0.49495251  0.85200842  0.57003973    -0.22100
C1346       C  0.48655957  0.82385259  0.56761542     0.12500
S1347       S  0.46523771  0.77483693  0.54082814    -0.05700
C1348       C  0.48203681  0.78188952  0.57955144    -0.09200
C1349       C  0.49228235  0.80893421  0.59052658    -0.25800
S1350       S  0.50801915  0.90053249  0.03964134    -0.03000
C1351       C  0.48849971  0.89341559  0.00313169    -0.16500
C1352       C  0.46999492  0.86411504  0.49104793    -0.14500
H1353       H  0.45366145  0.80795111  0.49102328     0.20900
H1354       H  0.50675120  0.86427757  0.59161322     0.17000
H1355       H  0.50412329  0.81761515  0.61353550     0.19500
H1356       H  0.45931676  0.85619807  0.46715392     0.12800
loop_ 
_geom_bond_atom_site_label_1 
_geom_bond_atom_site_label_2 
_geom_bond_distance 
_geom_bond_site_symmetry_2 
_ccdc_geom_bond_type 
C1            C2   1.408       .  A
C1            C6   1.404       .  A
C1          C657   1.487       .  S
C2            C3   1.410       .  A
C2            H7   1.077       .  S
C3            C4   1.415       .  A
C3           C12   1.507       .  S
C4            C5   1.402       .  A
C4            H8   1.079       .  S
C5            C6   1.399       .  A
C5          C670   1.484       .  S
C6            H9   1.082       .  S
C10          C11   1.409       .  A
C10          C15   1.400       .  A
C10         C622   1.482       .  S
C11          C12   1.417       .  A
C11          H16   1.080       .  S
C12          C13   1.409       .  A
C13          C14   1.399       .  A
C13          H17   1.079       .  S
C14          C15   1.399       .  A
C14         C638   1.476       .  S
C15          H18   1.083       .  S
C19          C20   1.405       .  A
C19          C24   1.404       .  A
C19         C609   1.481       .  S
C20          C21   1.413       .  A
C20          H25   1.079       .  S
C21          C22   1.412       .  A
C21          C30   1.509       .  S
C22          C23   1.403       .  A
C22          H26   1.079       .  S
C23          C24   1.402       .  A
C23         C590   1.483       .  S
C24          H27   1.083       .  S
C28          C29   1.405       .  A
C28          C33   1.400       .  A
C28         C574   1.480       .  S
C29          C30   1.411       .  A
C29          H34   1.078       .  S
C30          C31   1.412       .  A
C31          C32   1.403       .  A
C31          H35   1.079       .  S
C32          C33   1.400       .  A
C32         C558   1.474       .  S
C33          H36   1.083       .  S
C37          C38   1.403       .  A
C37          C42   1.400       .  A
C37         C542   1.483       .  S
C38          C39   1.414       .  A
C38          H43   1.077       .  S
C39          C40   1.415       .  A
C39          C48   1.514       .  S
C40          C41   1.405       .  A
C40          H44   1.078       .  S
C41          C42   1.401       .  A
C41         C529   1.477       .  S
C42          H45   1.084       .  S
C46          C47   1.404       .  A
C46          C51   1.403       .  A
C46         C513   1.489       .  S
C47          C48   1.414       .  A
C47          H52   1.077       .  S
C48          C49   1.413       .  A
C49          C50   1.408       .  A
C49          H53   1.077       .  S
C50          C51   1.403       .  A
C50         C497   1.486       .  S
C51          H54   1.082       .  S
C55          C56   1.407       .  A
C55          C60   1.402       .  A
C55         C478   1.492       .  S
C56          C57   1.416       .  A
C56          H61   1.076       .  S
C57          C58   1.414       .  A
C57          C68   1.517       .  S
C58          C59   1.407       .  A
C58          H62   1.078       .  S
C59          C60   1.403       .  A
C59         C462   1.483       .  S
C60          H63   1.082       .  S
C64          C65   1.396       .  A
C64          C69   1.403       .  A
C64         C446   1.482       .  S
C65          C66   1.400       .  A
C65          H70   1.083       .  S
C66          C67   1.408       .  A
C66         C433   1.483       .  S
C67          C68   1.418       .  A
C67          H71   1.077       .  S
C68          C69   1.416       .  A
C69          H72   1.077       .  S
C73          C74   1.401       .  A
C73          C78   1.401       .  A
C73         C401   1.474       .  S
C74          C75   1.406       .  A
C74          H79   1.080       .  S
C75          C76   1.415       .  A
C75          C86   1.507       .  S
C76          C77   1.408       .  A
C76          H80   1.080       .  S
C77          C78   1.403       .  A
C77         C417   1.485       .  S
C78          H81   1.083       .  S
C82          C83   1.400       .  A
C82          C87   1.406       .  A
C82         C369   1.480       .  S
C83          C84   1.399       .  A
C83          H88   1.083       .  S
C84          C85   1.403       .  A
C84         C382   1.479       .  S
C85          C86   1.407       .  A
C85          H89   1.079       .  S
C86          C87   1.416       .  A
C87          H90   1.079       .  S
C91          C92   1.402       .  A
C91          C96   1.403       .  A
C91         C350   1.480       .  S
C92          C93   1.400       .  A
C92          H97   1.084       .  S
C93          C94   1.405       .  A
C93         C334   1.478       .  S
C94          C95   1.413       .  A
C94          H98   1.081       .  S
C95          C96   1.412       .  A
C95         C102   1.506       .  S
C96          H99   1.080       .  S
C100        C101   1.403       .  A
C100        C105   1.397       .  A
C100        C321   1.479       .  S
C101        C102   1.413       .  A
C101        H106   1.080       .  S
C102        C103   1.412       .  A
C103        C104   1.407       .  A
C103        H107   1.079       .  S
C104        C105   1.401       .  A
C104        C302   1.480       .  S
C105        H108   1.083       .  S
O109       Zr121   2.435       .  S
O109        C111   1.287       .  A
O110       Zr147   2.419       .  S
O110        C111   1.286       .  A
C111        C654   1.468       .  S
O112       Zr124   2.444       .  S
O112        C114   1.289       .  A
O113       Zr148   2.421       .  S
O113        C114   1.286       .  A
C114        C366   1.474       .  S
O115       Zr124   2.441       .  S
O115        C117   1.289       .  A
O116       Zr147   2.432       .  S
O116        C117   1.288       .  A
C117        C625   1.474       .  S
O118       Zr121   2.453       .  S
O118        C120   1.290       .  A
O119       Zr148   2.408       .  S
O119        C120   1.283       .  A
C120        C398   1.472       .  S
Zr121       O122   2.434       .  S
Zr121       O801   2.435       .  S
Zr121       O127   2.377       .  S
Zr121       O128   2.366       .  S
Zr121       O151   2.367       .  S
Zr121       O153   2.372       .  S
O122        H165   0.990       .  S
O123       Zr799   2.437   1_554  S
O123        H164   0.990       .  S
O123        H168   0.990       .  S
Zr124       O125   2.435       .  S
Zr124       O126   2.435       .  S
Zr124       O128   2.370       .  S
Zr124       O127   2.373       .  S
Zr124       O152   2.369       .  S
Zr124       O154   2.369       .  S
O125        H166   0.990       .  S
O125        H169   0.990       .  S
O126        H159   0.990       .  S
O127       Zr147   2.384       .  S
O128       Zr148   2.377       .  S
O128        H155   0.964       .  S
O129       Zr141   2.445       .  S
O129        C131   1.289       .  A
O130       Zr148   2.410       .  S
O130        C131   1.284       .  A
C131        C305   1.470       .  S
O132       Zr144   2.443       .  S
O132        C134   1.289       .  A
O133       Zr147   2.430       .  S
O133        C134   1.288       .  A
C134        C494   1.476       .  S
O135       Zr144   2.461       .  S
O135        C137   1.291       .  A
O136       Zr148   2.414       .  S
O136        C137   1.284       .  A
C137        C337   1.478       .  S
O138       Zr141   2.439       .  S
O138        C140   1.287       .  A
O139       Zr147   2.439       .  S
O139        C140   1.289       .  A
C140        C526   1.478       .  S
Zr141       O142   2.435       .  S
Zr141       O821   2.434       .  S
Zr141       O149   2.373       .  S
Zr141       O150   2.372       .  S
Zr141       O153   2.371       .  S
Zr141       O151   2.373       .  S
O142        H162   0.990       .  S
O142        H167   0.990       .  S
O143       Zr819   2.435   1_554  S
O143        H163   0.990       .  S
Zr144       O145   2.436       .  S
Zr144       O146   2.435       .  S
Zr144       O150   2.380       .  S
Zr144       O149   2.369       .  S
Zr144       O154   2.367       .  S
Zr144       O152   2.371       .  S
O145        H161   0.990       .  S
O146        H160   0.990       .  S
O146        H170   0.990       .  S
Zr147       O150   2.381       .  S
Zr147       O152   2.384       .  S
Zr147       O153   2.386       .  S
Zr148       O149   2.382       .  S
Zr148       O151   2.379       .  S
Zr148       O154   2.372       .  S
O149        H157   0.963       .  S
O152        H156   0.968       .  S
O153        H158   0.962       .  S
O171       Zr183   2.463   1_455  S
O171        C173   1.292       .  A
O172       Zr209   2.404       .  S
O172        C173   1.282       .  A
C173        C593   1.475       .  S
O174       Zr186   2.452       .  S
O174        C176   1.289       .  A
O175       Zr210   2.428       .  S
O175        C176   1.287       .  A
C176        C414   1.479       .  S
O177       Zr186   2.447   1_455  S
O177        C179   1.288       .  A
O178       Zr209   2.427       .  S
O178        C179   1.286       .  A
C179        C561   1.477       .  S
O180       Zr183   2.442       .  S
O180        C182   1.288       .  A
O181       Zr210   2.411       .  S
O181        C182   1.284       .  A
C182        C385   1.466       .  S
Zr183       O184   2.435       .  S
Zr183       O185   2.437       .  S
Zr183       O189   2.373   1_655  S
Zr183       O190   2.378       .  S
Zr183       O213   2.372       .  S
Zr183       O215   2.365   1_655  S
O184        H227   0.990       .  S
O185        H226   0.990   1_655  S
O185        H230   0.990       .  S
Zr186       O187   2.435       .  S
Zr186       O866   2.438       .  S
Zr186       O190   2.376       .  S
Zr186       O189   2.375   1_655  S
Zr186       O214   2.376   1_655  S
Zr186       O216   2.383       .  S
O187        H228   0.990   1_655  S
O187        H231   0.990       .  S
O188       Zr864   2.435   1_554  S
O188        H221   0.990       .  S
O189       Zr209   2.376       .  S
O190       Zr210   2.386       .  S
O190        H217   0.964       .  S
O191       Zr203   2.462       .  S
O191        C193   1.292       .  A
O192       Zr210   2.420       .  S
O192        C193   1.285       .  A
C193        C481   1.479       .  S
O194       Zr206   2.457   1_455  S
O194        C196   1.291       .  A
O195       Zr209   2.403       .  S
O195        C196   1.282       .  A
C196        C545   1.470       .  S
O197       Zr206   2.451       .  S
O197        C199   1.290       .  A
O198       Zr210   2.426       .  S
O198        C199   1.286       .  A
C199        C449   1.477       .  S
O200       Zr203   2.450   1_455  S
O200        C202   1.290       .  A
O201       Zr209   2.416       .  S
O201        C202   1.285       .  A
C202        C510   1.470       .  S
Zr203       O204   2.436       .  S
Zr203       O205   2.434       .  S
Zr203       O211   2.375       .  S
Zr203       O212   2.378   1_655  S
Zr203       O215   2.377   1_655  S
Zr203       O213   2.366       .  S
O204        H224   0.990       .  S
O204        H229   0.990       .  S
O205        H225   0.990       .  S
Zr206       O207   2.436       .  S
Zr206       O886   2.435       .  S
Zr206       O212   2.370   1_655  S
Zr206       O211   2.374       .  S
Zr206       O216   2.383       .  S
Zr206       O214   2.371   1_655  S
O207        H223   0.990       .  S
O208       Zr884   2.436   1_554  S
O208        H222   0.990       .  S
O208        H232   0.990       .  S
Zr209       O212   2.374       .  S
Zr209       O214   2.381       .  S
Zr209       O215   2.382       .  S
Zr210       O211   2.380       .  S
Zr210       O213   2.382       .  S
Zr210       O216   2.386       .  S
O211        H219   0.961       .  S
O214        H218   0.963       .  S
O215        H220   0.966       .  S
O233       Zr245   2.446       .  S
O233        C235   1.289       .  A
O234       Zr271   2.410       .  S
O234        C235   1.284       .  A
C235        C641   1.469       .  S
O236       Zr248   2.442   1_545  S
O236        C238   1.287       .  A
O237       Zr272   2.417       .  S
O237        C238   1.286       .  A
C238        C430   1.474       .  S
O239       Zr248   2.435       .  S
O239        C241   1.287       .  A
O240       Zr271   2.438       .  S
O240        C241   1.288       .  A
C241        C673   1.474       .  S
O242       Zr245   2.447   1_545  S
O242        C244   1.289       .  A
O243       Zr272   2.420       .  S
O243        C244   1.286       .  A
C244        C465   1.474       .  S
Zr245       O246   2.435       .  S
Zr245       O247   2.438       .  S
Zr245       O251   2.374       .  S
Zr245       O252   2.376   1_565  S
Zr245       O275   2.372   1_565  S
Zr245       O277   2.376       .  S
O246        H289   0.990       .  S
O247        H288   0.990       .  S
O247        H292   0.990       .  S
Zr248       O249   2.433       .  S
Zr248       O928   2.433       .  S
Zr248       O252   2.370   1_565  S
Zr248       O251   2.370       .  S
Zr248       O276   2.376       .  S
Zr248       O278   2.369   1_565  S
O249        H290   0.990       .  S
O249        H293   0.990       .  S
O250       Zr926   2.433   1_554  S
O250        H283   0.990       .  S
O251       Zr271   2.376       .  S
O252       Zr272   2.378       .  S
O252        H279   0.965       .  S
O253       Zr265   2.464   1_545  S
O253        C255   1.293       .  A
O254       Zr272   2.403       .  S
O254        C255   1.283       .  A
C255        C353   1.474       .  S
O256       Zr268   2.445       .  S
O256        C258   1.289       .  A
O257       Zr271   2.419       .  S
O257        C258   1.285       .  A
C258        C577   1.473       .  S
O259       Zr268   2.438   1_545  S
O259        C261   1.287       .  A
O260       Zr272   2.428       .  S
O260        C261   1.287       .  A
C261        C318   1.473       .  S
O262       Zr265   2.464       .  S
O262        C264   1.293       .  A
O263       Zr271   2.418       .  S
O263        C264   1.286       .  A
C264        C606   1.480       .  S
Zr265       O266   2.435       .  S
Zr265       O267   2.434       .  S
Zr265       O273   2.377   1_565  S
Zr265       O274   2.370       .  S
Zr265       O277   2.377       .  S
Zr265       O275   2.372   1_565  S
O266        H286   0.990   1_565  S
O266        H291   0.990   1_565  S
O267        H287   0.990       .  S
Zr268       O269   2.435       .  S
Zr268       O948   2.436       .  S
Zr268       O274   2.367       .  S
Zr268       O273   2.372   1_565  S
Zr268       O278   2.370   1_565  S
Zr268       O276   2.367       .  S
O269        H285   0.990   1_565  S
O270       Zr946   2.436   1_554  S
O270        H284   0.990       .  S
O270        H294   0.990   1_565  S
Zr271       O274   2.376       .  S
Zr271       O276   2.382       .  S
Zr271       O277   2.388       .  S
Zr272       O273   2.384       .  S
Zr272       O275   2.384       .  S
Zr272       O278   2.372       .  S
O273        H281   0.966       .  S
O276        H280   0.966       .  S
O277        H282   0.966       .  S
C295        C300   1.386       .  A
C295        C974   1.398       .  A
C295        S301   1.702       .  A
C296        C973   1.402       .  A
C296        C975   1.403       .  A
C296        H307   1.083       .  S
C297        C298   1.387       .  A
C297        C974   1.399       .  A
C297        C984   1.365   1_554  A
C298        C299   1.401       .  A
C298        S304   1.707       .  A
C299        C300   1.403       .  A
C299        H308   1.083       .  S
C300        C303   1.369       .  A
S301        C302   1.725       .  A
C302        C303   1.389       .  A
C303        H309   1.083       .  S
S304        C983   1.724   1_554  A
C305        C306   1.389       .  A
C305        S982   1.721       .  A
C306        C975   1.369       .  A
C306        H310   1.083       .  S
C311        C316   1.387       .  A
C311        C312   1.399       .  A
C311        S317   1.705       .  A
C312        C313   1.400       .  A
C312        H323   1.083       .  S
C313        C322   1.368       .  A
C313        C314   1.386       .  A
C314        C315   1.403       .  A
C314        S320   1.708       .  A
C315        C316   1.404       .  A
C315       H1002   1.083   1_554  S
C316        C997   1.371   1_554  A
S317        C996   1.723       .  A
C318        C319   1.388       .  A
C318        S995   1.723       .  A
C319        C994   1.372       .  A
C319        H325   1.083       .  S
S320        C321   1.727       .  A
C321        C322   1.386       .  A
C322        H326   1.083       .  S
H324        C993   1.083       .  S
C327        C332   1.387       .  A
C327        C328   1.405       .  A
C327        S333   1.712       .  A
C328        C329   1.406       .  A
C328        H339   1.083       .  S
C329        C338   1.374       .  A
C329        C330   1.386       .  A
C330        C331   1.400       .  A
C330        S336   1.707       .  A
C331        C332   1.401       .  A
C331        H340   1.083       .  S
C332        C335   1.370       .  A
S333        C334   1.726       .  A
C334        C335   1.385       .  A
C335        H341   1.083       .  S
S336        C337   1.723       .  A
C337        C338   1.391       .  A
C338        H342   1.083       .  S
C343        C348   1.386       .  A
C343        C344   1.401       .  A
C343        S349   1.707       .  A
C344        C345   1.402       .  A
C344        H355   1.083       .  S
C345        C354   1.370       .  A
C345        C346   1.387       .  A
C346        C347   1.401       .  A
C346        S352   1.706       .  A
C347        C348   1.402       .  A
C347        H356   1.083       .  S
C348        C351   1.369       .  A
S349        C350   1.726       .  A
C350        C351   1.387       .  A
C351        H357   1.083       .  S
S352        C353   1.727       .  A
C353        C354   1.386       .  A
C354        H358   1.083       .  S
C359        C364   1.387       .  A
C359        C360   1.400       .  A
C359        S365   1.706       .  A
C360        C361   1.402       .  A
C360        H371   1.083       .  S
C361        C370   1.368       .  A
C361        C362   1.386       .  A
C362        C363   1.402       .  A
C362        S368   1.710       .  A
C363        C364   1.403       .  A
C363        H372   1.083       .  S
C364        C367   1.371       .  A
S365        C366   1.724       .  A
C366        C367   1.388       .  A
C367        H373   1.083       .  S
S368        C369   1.725       .  A
C369        C370   1.388       .  A
C370        H374   1.083       .  S
C375        C380   1.386       .  A
C375        C376   1.401       .  A
C375        S381   1.706       .  A
C376        C377   1.403       .  A
C376        H387   1.083       .  S
C377        C386   1.369       .  A
C377        C378   1.388       .  A
C378        C379   1.397       .  A
C378        S384   1.701       .  A
C379        C380   1.398       .  A
C379        H388   1.083       .  S
C380        C383   1.364       .  A
S381        C382   1.726       .  A
C382        C383   1.387       .  A
C383        H389   1.083       .  S
S384        C385   1.720       .  A
C385        C386   1.387       .  A
C386        H390   1.083       .  S
C391        C396   1.387       .  A
C391        C392   1.403       .  A
C391       S1075   1.706   1_554  A
C392        C393   1.402       .  A
C392        H403   1.083       .  S
C393        C402   1.372       .  A
C393        C394   1.387       .  A
C394        C395   1.398       .  A
C394        S400   1.700       .  A
C395        C396   1.399       .  A
C395        H404   1.083       .  S
C396        C399   1.369       .  A
S397        C398   1.724       .  A
S397       C1069   1.703       .  A
C398       C1077   1.387       .  A
C399       C1076   1.385   1_554  A
C399        H405   1.083       .  S
S400        C401   1.723       .  A
C401        C402   1.386       .  A
C402        H406   1.083       .  S
C407        C412   1.387       .  A
C407        C408   1.403       .  A
C407       S1091   1.707   1_554  A
C408        C409   1.404       .  A
C408       H1097   1.083       .  S
C409        C418   1.373       .  A
C409        C410   1.386       .  A
C410        C411   1.404       .  A
C410        S416   1.708       .  A
C411        C412   1.404       .  A
C411        H420   1.083       .  S
C412        C415   1.375       .  A
S413        C414   1.724       .  A
S413       C1085   1.706       .  A
C414       C1093   1.390       .  A
C415       C1092   1.390   1_554  A
C415        H421   1.083       .  S
S416        C417   1.726       .  A
C417        C418   1.390       .  A
C418        H422   1.083       .  S
H419       C1086   1.083       .  S
C423        C428   1.387       .  A
C423        C424   1.402       .  A
C423        S429   1.706       .  A
C424        C425   1.402       .  A
C424        H435   1.083       .  S
C425        C434   1.372       .  A
C425        C426   1.386       .  A
C426        C427   1.400       .  A
C426        S432   1.701       .  A
C427        C428   1.400       .  A
C427        H436   1.083   1_554  S
C428       C1109   1.368   1_554  A
S429       C1108   1.723       .  A
C430        C431   1.386       .  A
C430       S1107   1.726       .  A
C431       C1106   1.368       .  A
C431        H437   1.083       .  S
S432        C433   1.727       .  A
C433        C434   1.389       .  A
C434        H438   1.083       .  S
C439        C444   1.386       .  A
C439       C1118   1.402       .  A
C439        S445   1.707       .  A
C440       C1117   1.406       .  A
C440       C1119   1.407       .  A
C440        H451   1.083       .  S
C441        C442   1.387       .  A
C441       C1118   1.403       .  A
C441       C1128   1.372   1_554  A
C442        C443   1.401       .  A
C442        S448   1.705       .  A
C443        C444   1.401       .  A
C443        H452   1.083       .  S
C444        C447   1.369       .  A
S445        C446   1.726       .  A
C446        C447   1.388       .  A
C447        H453   1.083       .  S
S448       C1127   1.724       .  A
C449        C450   1.391       .  A
C449       S1126   1.722       .  A
C450       C1119   1.374       .  A
C450        H454   1.083       .  S
C455        C460   1.386       .  A
C455        C456   1.402       .  A
C455        S461   1.707       .  A
C456        C457   1.403       .  A
C456        H467   1.083       .  S
C457        C466   1.371       .  A
C457        C458   1.387       .  A
C458        C459   1.402       .  A
C458        S464   1.706       .  A
C459        C460   1.402       .  A
C459        H468   1.083       .  S
C460        C463   1.371       .  A
S461        C462   1.725       .  A
C462        C463   1.389       .  A
C463        H469   1.083       .  S
S464        C465   1.723       .  A
C465        C466   1.388       .  A
C466        H470   1.083       .  S
C471        C476   1.385       .  A
C471        C472   1.403       .  A
C471        S477   1.705       .  A
C472        C473   1.403       .  A
C472        H483   1.083       .  S
C473        C482   1.374       .  A
C473        C474   1.387       .  A
C474        C475   1.405       .  A
C474        S480   1.708       .  A
C475        C476   1.405       .  A
C475        H484   1.083       .  S
C476        C479   1.375       .  A
S477        C478   1.728       .  A
C478        C479   1.393       .  A
C479        H485   1.083       .  S
S480        C481   1.727       .  A
C481        C482   1.388       .  A
C482        H486   1.083       .  S
C487        C492   1.387       .  A
C487        C488   1.401       .  A
C487        S493   1.706       .  A
C488        C489   1.402       .  A
C488        H499   1.083       .  S
C489        C498   1.371       .  A
C489        C490   1.386       .  A
C490        C491   1.403       .  A
C490        S496   1.708       .  A
C491        C492   1.404       .  A
C491        H500   1.083       .  S
C492        C495   1.373       .  A
S493        C494   1.724       .  A
C494        C495   1.388       .  A
C495        H501   1.083       .  S
S496        C497   1.727       .  A
C497        C498   1.389       .  A
C498        H502   1.083       .  S
C503        C508   1.387       .  A
C503        C504   1.402       .  A
C503        S509   1.704       .  A
C504        C505   1.402       .  A
C504        H515   1.083       .  S
C505        C514   1.372       .  A
C505        C506   1.386       .  A
C506        C507   1.402       .  A
C506        S512   1.703       .  A
C507        C508   1.402       .  A
C507        H516   1.083       .  S
C508        C511   1.372       .  A
S509        C510   1.723       .  A
C510        C511   1.386       .  A
C511        H517   1.083       .  S
S512        C513   1.729       .  A
C513        C514   1.390       .  A
C514        H518   1.082       .  S
C519        C524   1.387       .  A
C519        C520   1.403       .  A
C519        S525   1.705       .  A
C520        C521   1.403       .  A
C520        H531   1.083       .  S
C521        C530   1.371       .  A
C521        C522   1.387       .  A
C522       C1201   1.402       .  A
C522        S528   1.707       .  A
C523       C1200   1.402       .  A
C523       C1202   1.402       .  A
C523        H532   1.083       .  S
C524       C1201   1.402       .  A
C524       C1205   1.373   1_554  A
S525       C1204   1.726       .  A
C526        C527   1.387       .  A
C526       S1203   1.727       .  A
C527       C1202   1.373       .  A
C527        H533   1.083       .  S
S528        C529   1.723       .  A
C529        C530   1.388       .  A
C530        H534   1.083       .  S
C535        C540   1.386       .  A
C535        C536   1.402       .  A
C535        S541   1.705       .  A
C536        C537   1.402       .  A
C536        H547   1.083       .  S
C537        C546   1.373       .  A
C537        C538   1.387       .  A
C538        C539   1.402       .  A
C538       S1222   1.705   1_554  A
C539        C540   1.402       .  A
C539       H1226   1.083       .  S
C540        C543   1.372       .  A
S541        C542   1.727       .  A
C542        C543   1.388       .  A
C543        H549   1.083       .  S
S544        C545   1.726       .  A
S544       C1216   1.707       .  A
C545       C1224   1.383       .  A
C546       C1223   1.388   1_554  A
C546        H550   1.083       .  S
H548       C1217   1.083       .  S
C551        C556   1.387       .  A
C551        C552   1.397       .  A
C551        S557   1.702       .  A
C552        C553   1.397       .  A
C552        H563   1.083       .  S
C553        C562   1.364       .  A
C553        C554   1.387       .  A
C554        C555   1.399       .  A
C554       S1238   1.703   1_554  A
C555        C556   1.401       .  A
C555       H1242   1.083       .  S
C556        C559   1.367       .  A
S557        C558   1.722       .  A
C558        C559   1.387       .  A
C559        H565   1.083       .  S
S560        C561   1.724       .  A
S560       C1232   1.709       .  A
C561       C1240   1.389       .  A
C562       C1239   1.382   1_554  A
C562        H566   1.083       .  S
H564       C1233   1.083       .  S
C567        C572   1.387       .  A
C567        C568   1.401       .  A
C567        S573   1.703       .  A
C568        C569   1.402       .  A
C568        H579   1.083       .  S
C569        C578   1.371       .  A
C569        C570   1.387       .  A
C570        C571   1.402       .  A
C570       S1254   1.707   1_554  A
C571        C572   1.402       .  A
C571       H1258   1.083   1_554  S
C572        C575   1.371       .  A
S573        C574   1.725       .  A
C574        C575   1.388       .  A
C575        H581   1.083       .  S
S576        C577   1.726       .  A
S576       C1248   1.710       .  A
C577       C1256   1.385       .  A
C578       C1255   1.388   1_554  A
C578        H582   1.083       .  S
H580       C1249   1.083       .  S
C583        C588   1.387       .  A
C583        C584   1.401       .  A
C583        S589   1.701       .  A
C584        C585   1.400       .  A
C584        H595   1.083       .  S
C585        C594   1.373       .  A
C585        C586   1.387       .  A
C586        C587   1.405       .  A
C586        S592   1.706       .  A
C587        C588   1.404       .  A
C587        H596   1.083       .  S
C588        C591   1.376       .  A
S589        C590   1.725       .  A
C590        C591   1.390       .  A
C591        H597   1.083       .  S
S592        C593   1.727       .  A
C593        C594   1.386       .  A
C594        H598   1.083       .  S
C599        C604   1.387       .  A
C599        C600   1.401       .  A
C599        S605   1.706       .  A
C600        C601   1.402       .  A
C600        H611   1.083       .  S
C601        C610   1.370       .  A
C601        C602   1.386       .  A
C602        C603   1.405       .  A
C602        S608   1.711       .  A
C603        C604   1.405       .  A
C603        H612   1.083       .  S
C604        C607   1.375       .  A
S605        C606   1.726       .  A
C606        C607   1.390       .  A
C607        H613   1.083       .  S
S608        C609   1.727       .  A
C609        C610   1.386       .  A
C610        H614   1.083       .  S
C615        C620   1.386       .  A
C615        C616   1.406       .  A
C615        S621   1.709       .  A
C616        C617   1.406       .  A
C616        H627   1.083       .  S
C617        C626   1.376       .  A
C617        C618   1.387       .  A
C618        C619   1.399       .  A
C618        S624   1.702       .  A
C619        C620   1.399       .  A
C619        H628   1.083       .  S
C620        C623   1.370       .  A
S621        C622   1.729       .  A
C622        C623   1.386       .  A
C623        H629   1.083       .  S
S624        C625   1.722       .  A
C625        C626   1.390       .  A
C626        H630   1.083       .  S
C631        C636   1.387       .  A
C631        C632   1.402       .  A
C631        S637   1.705       .  A
C632        C633   1.402       .  A
C632        H643   1.083       .  S
C633        C642   1.371       .  A
C633        C634   1.387       .  A
C634        C635   1.398       .  A
C634        S640   1.701       .  A
C635        C636   1.398       .  A
C635        H644   1.083       .  S
C636        C639   1.366       .  A
S637        C638   1.726       .  A
C638        C639   1.385       .  A
C639        H645   1.083       .  S
S640        C641   1.722       .  A
C641        C642   1.387       .  A
C642        H646   1.083       .  S
C647        C652   1.387       .  A
C647        C648   1.402       .  A
C647        S653   1.706       .  A
C648        C649   1.403       .  A
C648        H659   1.083       .  S
C649        C658   1.370       .  A
C649        C650   1.385       .  A
C650        C651   1.398       .  A
C650        S656   1.700       .  A
C651        C652   1.399       .  A
C651       H1338   1.083   1_554  S
C652       C1333   1.367   1_554  A
S653       C1332   1.725       .  A
C654        C655   1.386       .  A
C654       S1331   1.723       .  A
C655       C1330   1.368       .  A
C655        H661   1.083       .  S
S656        C657   1.727       .  A
C657        C658   1.392       .  A
C658        H662   1.082       .  S
H660       C1329   1.083       .  S
C663        C668   1.386       .  A
C663        C664   1.402       .  A
C663        S669   1.707       .  A
C664        C665   1.402       .  A
C664        H675   1.083   1_554  S
C665        C674   1.372   1_554  A
C665        C666   1.387       .  A
C666        C667   1.402       .  A
C666       S1350   1.704       .  A
C667        C668   1.402       .  A
C667        H676   1.083       .  S
C668        C671   1.371       .  A
S669        C670   1.726       .  A
C670        C671   1.389       .  A
C671        H677   1.083       .  S
S672        C673   1.724       .  A
S672       C1344   1.702       .  A
C673       C1352   1.388       .  A
C674       C1351   1.387   1_556  A
C674        H678   1.083       .  S
C679        C680   1.404       .  A
C679        C684   1.399       .  A
C679       C1335   1.479       .  S
C680        C681   1.411       .  A
C680        H685   1.078       .  S
C681        C682   1.415       .  A
C681        C690   1.509       .  S
C682        C683   1.407       .  A
C682        H686   1.078       .  S
C683        C684   1.399       .  A
C683       C1348   1.487       .  S
C684        H687   1.082       .  S
C688        C689   1.405       .  A
C688        C693   1.399       .  A
C688       C1300   1.483       .  S
C689        C690   1.416       .  A
C689        H694   1.079       .  S
C690        C691   1.412       .  A
C691        C692   1.403       .  A
C691        H695   1.079       .  S
C692        C693   1.403       .  A
C692       C1316   1.480       .  S
C693        H696   1.083       .  S
C697        C698   1.407       .  A
C697        C702   1.406       .  A
C697       C1287   1.484       .  S
C698        C699   1.413       .  A
C698        H703   1.079       .  S
C699        C700   1.411       .  A
C699        C708   1.510       .  S
C700        C701   1.402       .  A
C700        H704   1.079       .  S
C701        C702   1.404       .  A
C701       C1268   1.486       .  S
C702        H705   1.083       .  S
C706        C707   1.406       .  A
C706        C711   1.403       .  A
C706       C1252   1.483       .  S
C707        C708   1.412       .  A
C707        H712   1.079       .  S
C708        C709   1.413       .  A
C709        C710   1.404       .  A
C709        H713   1.079       .  S
C710        C711   1.402       .  A
C710       C1236   1.483       .  S
C711        H714   1.083       .  S
C715        C716   1.402       .  A
C715        C720   1.402       .  A
C715       C1220   1.487       .  S
C716        C717   1.409       .  A
C716        H721   1.078       .  S
C717        C718   1.416       .  A
C717        C726   1.510       .  S
C718        C719   1.409       .  A
C718        H722   1.080       .  S
C719        C720   1.404       .  A
C719       C1207   1.484       .  S
C720        H723   1.082       .  S
C724        C725   1.407       .  A
C724        C729   1.405       .  A
C724       C1191   1.492       .  S
C725        C726   1.416       .  A
C725        H730   1.078       .  S
C726        C727   1.409       .  A
C727        C728   1.403       .  A
C727        H731   1.080       .  S
C728        C729   1.403       .  A
C728       C1175   1.478       .  S
C729        H732   1.083       .  S
C733        C734   1.407       .  A
C733        C738   1.408       .  A
C733       C1156   1.496       .  S
C734        C735   1.416       .  A
C734        H739   1.077       .  S
C735        C736   1.414       .  A
C735        C746   1.517       .  S
C736        C737   1.408       .  A
C736        H740   1.078       .  S
C737        C738   1.407       .  A
C737       C1140   1.492       .  S
C738        H741   1.082       .  S
C742        C743   1.399       .  A
C742        C747   1.405       .  A
C742       C1124   1.488       .  S
C743        C744   1.403       .  A
C743        H748   1.083       .  S
C744        C745   1.408       .  A
C744       C1111   1.486       .  S
C745        C746   1.418       .  A
C745        H749   1.078       .  S
C746        C747   1.416       .  A
C747        H750   1.078       .  S
C751        C752   1.399       .  A
C751        C756   1.404       .  A
C751       C1079   1.475       .  S
C752        C753   1.406       .  A
C752        H757   1.080       .  S
C753        C754   1.413       .  A
C753        C764   1.504       .  S
C754        C755   1.407       .  A
C754        H758   1.079       .  S
C755        C756   1.406       .  A
C755       C1095   1.487       .  S
C756        H759   1.083       .  S
C760        C761   1.404       .  A
C760        C765   1.405       .  A
C760       C1047   1.485       .  S
C761        C762   1.403       .  A
C761        H766   1.083       .  S
C762        C763   1.403       .  A
C762       C1060   1.482       .  S
C763        C764   1.407       .  A
C763        H767   1.079       .  S
C764        C765   1.414       .  A
C765        H768   1.079       .  S
C769        C770   1.403       .  A
C769        C774   1.404       .  A
C769       C1028   1.481       .  S
C770        C771   1.402       .  A
C770        H775   1.084       .  S
C771        C772   1.402       .  A
C771       C1012   1.475       .  S
C772        C773   1.411       .  A
C772        H776   1.080       .  S
C773        C774   1.410       .  A
C773        C780   1.504       .  S
C774        H777   1.079       .  S
C778        C779   1.401       .  A
C778        C783   1.394       .  A
C778        C999   1.470       .  S
C779        C780   1.413       .  A
C779        H784   1.080       .  S
C780        C781   1.413       .  A
C781        C782   1.407       .  A
C781        H785   1.079       .  S
C782        C783   1.397       .  A
C782        C980   1.479       .  S
C783        H786   1.083       .  S
O787       Zr799   2.438       .  S
O787        C789   1.286       .  A
O788       Zr825   2.422       .  S
O788        C789   1.287       .  A
C789       C1332   1.470   1_556  S
O790       Zr802   2.445       .  S
O790        C792   1.288       .  A
O791       Zr826   2.422       .  S
O791        C792   1.286       .  A
C792       C1044   1.474       .  S
O793       Zr802   2.442       .  S
O793        C795   1.288       .  A
O794       Zr825   2.434       .  S
O794        C795   1.288       .  A
C795       C1303   1.476       .  S
O796       Zr799   2.456       .  S
O796        C798   1.291       .  A
O797       Zr826   2.412       .  S
O797        C798   1.284       .  A
C798       C1076   1.472       .  S
Zr799       O800   2.434       .  S
Zr799       O805   2.384       .  S
Zr799       O806   2.367       .  S
Zr799       O829   2.371       .  S
Zr799       O831   2.370       .  S
O800        H843   0.990       .  S
O801        H842   0.990       .  S
O801        H846   0.990       .  S
Zr802       O803   2.436       .  S
Zr802       O804   2.432       .  S
Zr802       O806   2.363       .  S
Zr802       O805   2.374       .  S
Zr802       O830   2.373       .  S
Zr802       O832   2.376       .  S
O803        H844   0.990       .  S
O803        H847   0.990       .  S
O804        H837   0.990       .  S
O805       Zr825   2.386       .  S
O806       Zr826   2.381       .  S
O806        H833   0.964       .  S
O807       Zr819   2.436       .  S
O807        C809   1.287       .  A
O808       Zr826   2.414       .  S
O808        C809   1.285       .  A
C809        C983   1.468       .  S
O810       Zr822   2.441       .  S
O810        C812   1.288       .  A
O811       Zr825   2.422       .  S
O811        C812   1.287       .  A
C812       C1172   1.473       .  S
O813       Zr822   2.458       .  S
O813        C815   1.290       .  A
O814       Zr826   2.422       .  S
O814        C815   1.286       .  A
C815       C1015   1.480       .  S
O816       Zr819   2.440       .  S
O816        C818   1.287       .  A
O817       Zr825   2.435       .  S
O817        C818   1.288       .  A
C818       C1204   1.477   1_556  S
Zr819       O820   2.435       .  S
Zr819       O827   2.373       .  S
Zr819       O828   2.368       .  S
Zr819       O831   2.369       .  S
Zr819       O829   2.382       .  S
O820        H840   0.990       .  S
O820        H845   0.990       .  S
O821        H841   0.990       .  S
Zr822       O823   2.437       .  S
Zr822       O824   2.434       .  S
Zr822       O828   2.381       .  S
Zr822       O827   2.369       .  S
Zr822       O832   2.368       .  S
Zr822       O830   2.373       .  S
O823        H839   0.990       .  S
O824        H838   0.990       .  S
O824        H848   0.990       .  S
Zr825       O828   2.386       .  S
Zr825       O830   2.391       .  S
Zr825       O831   2.389       .  S
Zr826       O827   2.384       .  S
Zr826       O829   2.387       .  S
Zr826       O832   2.376       .  S
O827        H835   0.965       .  S
O830        H834   0.968       .  S
O831        H836   0.963       .  S
O849       Zr861   2.463   1_455  S
O849        C851   1.291       .  A
O850       Zr887   2.410       .  S
O850        C851   1.283       .  A
C851       C1271   1.477       .  S
O852       Zr864   2.454       .  S
O852        C854   1.290       .  A
O853       Zr888   2.428       .  S
O853        C854   1.287       .  A
C854       C1092   1.481       .  S
O855       Zr864   2.436   1_455  S
O855        C857   1.287       .  A
O856       Zr887   2.402       .  S
O856        C857   1.282       .  A
C857       C1239   1.462       .  S
O858       Zr861   2.445       .  S
O858        C860   1.289       .  A
O859       Zr888   2.422       .  S
O859        C860   1.287       .  A
C860       C1063   1.472       .  S
Zr861       O862   2.436       .  S
Zr861       O863   2.439       .  S
Zr861       O867   2.364   1_655  S
Zr861       O868   2.383       .  S
Zr861       O891   2.379       .  S
Zr861       O893   2.368   1_655  S
O862        H905   0.990       .  S
O863        H904   0.990   1_655  S
O863        H908   0.990       .  S
Zr864       O865   2.434       .  S
Zr864       O868   2.375       .  S
Zr864       O867   2.374   1_655  S
Zr864       O892   2.379   1_655  S
Zr864       O894   2.371       .  S
O865        H906   0.990       .  S
O865        H909   0.990       .  S
O866        H899   0.990   1_655  S
O867       Zr887   2.376       .  S
O868       Zr888   2.387       .  S
O868        H895   0.969       .  S
O869       Zr881   2.468       .  S
O869        C871   1.292       .  A
O870       Zr888   2.417       .  S
O870        C871   1.285       .  A
C871       C1159   1.483       .  S
O872       Zr884   2.460   1_455  S
O872        C874   1.291       .  A
O873       Zr887   2.409       .  S
O873        C874   1.283       .  A
C874       C1223   1.477       .  S
O875       Zr884   2.442       .  S
O875        C877   1.288       .  A
O876       Zr888   2.428       .  S
O876        C877   1.287       .  A
C877       C1127   1.474   1_556  S
O878       Zr881   2.449   1_455  S
O878        C880   1.289       .  A
O879       Zr887   2.416       .  S
O879        C880   1.285       .  A
C880       C1188   1.474       .  S
Zr881       O882   2.433       .  S
Zr881       O883   2.433       .  S
Zr881       O889   2.371       .  S
Zr881       O890   2.376   1_655  S
Zr881       O893   2.381   1_655  S
Zr881       O891   2.368       .  S
O882        H902   0.990       .  S
O882        H907   0.990       .  S
O883        H903   0.990       .  S
Zr884       O885   2.433       .  S
Zr884       O890   2.372   1_655  S
Zr884       O889   2.383       .  S
Zr884       O894   2.378       .  S
Zr884       O892   2.364   1_655  S
O885        H901   0.990       .  S
O886        H900   0.990       .  S
O886        H910   0.990       .  S
Zr887       O890   2.375       .  S
Zr887       O892   2.382       .  S
Zr887       O893   2.380       .  S
Zr888       O889   2.386       .  S
Zr888       O891   2.385       .  S
Zr888       O894   2.381       .  S
O889        H897   0.964       .  S
O892        H896   0.967       .  S
O893        H898   0.963       .  S
O911       Zr923   2.445       .  S
O911        C913   1.289       .  A
O912       Zr949   2.421       .  S
O912        C913   1.286       .  A
C913       C1319   1.472       .  S
O914       Zr926   2.439   1_545  S
O914        C916   1.287       .  A
O915       Zr950   2.414       .  S
O915        C916   1.285       .  A
C916       C1108   1.470   1_556  S
O917       Zr926   2.433       .  S
O917        C919   1.286       .  A
O918       Zr949   2.437       .  S
O918        C919   1.289       .  A
C919       C1351   1.474   1_556  S
O920       Zr923   2.452   1_545  S
O920        C922   1.290       .  A
O921       Zr950   2.423       .  S
O921        C922   1.286       .  A
C922       C1143   1.478       .  S
Zr923       O924   2.437       .  S
Zr923       O925   2.437       .  S
Zr923       O929   2.379       .  S
Zr923       O930   2.374   1_565  S
Zr923       O953   2.368   1_565  S
Zr923       O955   2.374       .  S
O924        H967   0.990       .  S
O925        H966   0.990       .  S
O925        H970   0.990       .  S
Zr926       O927   2.435       .  S
Zr926       O930   2.369   1_565  S
Zr926       O929   2.367       .  S
Zr926       O954   2.379       .  S
Zr926       O956   2.373   1_565  S
O927        H968   0.990       .  S
O927        H971   0.990   1_565  S
O928        H961   0.990       .  S
O929       Zr949   2.381       .  S
O930       Zr950   2.381       .  S
O930        H957   0.966       .  S
O931       Zr943   2.457   1_545  S
O931        C933   1.291       .  A
O932       Zr950   2.402       .  S
O932        C933   1.282       .  A
C933       C1031   1.471       .  S
O934       Zr946   2.442       .  S
O934        C936   1.288       .  A
O935       Zr949   2.429       .  S
O935        C936   1.287       .  A
C936       C1255   1.475       .  S
O937       Zr946   2.440   1_545  S
O937        C939   1.287       .  A
O938       Zr950   2.419       .  S
O938        C939   1.285       .  A
C939        C996   1.472   1_556  S
O940       Zr943   2.452       .  S
O940        C942   1.290       .  A
O941       Zr949   2.426       .  S
O941        C942   1.287       .  A
C942       C1284   1.478       .  S
Zr943       O944   2.435       .  S
Zr943       O945   2.436       .  S
Zr943       O951   2.376   1_565  S
Zr943       O952   2.375       .  S
Zr943       O955   2.377       .  S
Zr943       O953   2.369   1_565  S
O944        H964   0.990       .  S
O944        H969   0.990   1_565  S
O945        H965   0.990       .  S
Zr946       O947   2.434       .  S
Zr946       O952   2.371       .  S
Zr946       O951   2.370   1_565  S
Zr946       O956   2.373   1_565  S
Zr946       O954   2.369       .  S
O947        H963   0.990   1_556  S
O948        H962   0.990       .  S
O948        H972   0.990       .  S
Zr949       O952   2.381       .  S
Zr949       O954   2.386       .  S
Zr949       O955   2.390       .  S
Zr950       O951   2.385       .  S
Zr950       O953   2.379       .  S
Zr950       O956   2.379       .  S
O951        H959   0.966       .  S
O954        H958   0.966       .  S
O955        H960   0.966       .  S
C973        C978   1.386       .  A
C973        S979   1.704       .  A
C974        H985   1.083   1_554  S
C975        C976   1.387       .  A
C976        C977   1.398       .  A
C976        S982   1.704       .  A
C977        C978   1.399       .  A
C977        H986   1.083       .  S
C978        C981   1.368       .  A
S979        C980   1.727       .  A
C980        C981   1.385       .  A
C981        H987   1.083       .  S
C983        C984   1.385       .  A
C984        H988   1.083       .  S
C989        C994   1.387       .  A
C989        C990   1.398       .  A
C989        S995   1.702       .  A
C990        C991   1.399       .  A
C990       H1001   1.083       .  S
C991       C1000   1.366       .  A
C991        C992   1.387       .  A
C992        C993   1.402       .  A
C992        S998   1.707       .  A
C993        C994   1.403       .  A
C996        C997   1.388   1_554  A
C997       H1003   1.083       .  S
S998        C999   1.724       .  A
C999       C1000   1.383       .  A
C1000      H1004   1.083       .  S
C1005      C1010   1.387       .  A
C1005      C1006   1.402       .  A
C1005      S1011   1.710       .  A
C1006      C1007   1.404       .  A
C1006      H1017   1.083       .  S
C1007      C1016   1.372       .  A
C1007      C1008   1.386       .  A
C1008      C1009   1.403       .  A
C1008      S1014   1.710       .  A
C1009      C1010   1.404       .  A
C1009      H1018   1.083       .  S
C1010      C1013   1.371       .  A
S1011      C1012   1.722       .  A
C1012      C1013   1.387       .  A
C1013      H1019   1.083       .  S
S1014      C1015   1.725       .  A
C1015      C1016   1.390       .  A
C1016      H1020   1.083       .  S
C1021      C1026   1.387       .  A
C1021      C1022   1.400       .  A
C1021      S1027   1.703       .  A
C1022      C1023   1.400       .  A
C1022      H1033   1.083       .  S
C1023      C1032   1.370       .  A
C1023      C1024   1.387       .  A
C1024      C1025   1.402       .  A
C1024      S1030   1.704       .  A
C1025      C1026   1.402       .  A
C1025      H1034   1.083       .  S
C1026      C1029   1.371       .  A
S1027      C1028   1.726       .  A
C1028      C1029   1.388       .  A
C1029      H1035   1.083       .  S
S1030      C1031   1.726       .  A
C1031      C1032   1.385       .  A
C1032      H1036   1.083       .  S
C1037      C1042   1.387       .  A
C1037      C1038   1.401       .  A
C1037      S1043   1.706       .  A
C1038      C1039   1.402       .  A
C1038      H1049   1.083       .  S
C1039      C1048   1.370       .  A
C1039      C1040   1.386       .  A
C1040      C1041   1.404       .  A
C1040      S1046   1.709       .  A
C1041      C1042   1.404       .  A
C1041      H1050   1.083       .  S
C1042      C1045   1.372       .  A
S1043      C1044   1.723       .  A
C1044      C1045   1.389       .  A
C1045      H1051   1.083       .  S
S1046      C1047   1.728       .  A
C1047      C1048   1.389       .  A
C1048      H1052   1.083       .  S
C1053      C1058   1.386       .  A
C1053      C1054   1.401       .  A
C1053      S1059   1.707       .  A
C1054      C1055   1.402       .  A
C1054      H1065   1.083       .  S
C1055      C1064   1.370       .  A
C1055      C1056   1.387       .  A
C1056      C1057   1.400       .  A
C1056      S1062   1.706       .  A
C1057      C1058   1.402       .  A
C1057      H1066   1.083       .  S
C1058      C1061   1.367       .  A
S1059      C1060   1.725       .  A
C1060      C1061   1.390       .  A
C1061      H1067   1.083       .  S
S1062      C1063   1.724       .  A
C1063      C1064   1.387       .  A
C1064      H1068   1.083       .  S
C1069      C1074   1.387       .  A
C1069      C1070   1.400       .  A
C1070      C1071   1.400       .  A
C1070      H1081   1.083       .  S
C1071      C1080   1.371       .  A
C1071      C1072   1.387       .  A
C1072      C1073   1.402       .  A
C1072      S1078   1.703       .  A
C1073      C1074   1.402       .  A
C1073      H1082   1.083       .  S
C1074      C1077   1.371       .  A
S1075      C1076   1.726       .  A
C1077      H1083   1.083       .  S
S1078      C1079   1.726       .  A
C1079      C1080   1.384       .  A
C1080      H1084   1.083       .  S
C1085      C1090   1.387       .  A
C1085      C1086   1.403       .  A
C1086      C1087   1.403       .  A
C1087      C1096   1.374       .  A
C1087      C1088   1.386       .  A
C1088      C1089   1.404       .  A
C1088      S1094   1.706       .  A
C1089      C1090   1.404       .  A
C1089      H1098   1.083       .  S
C1090      C1093   1.375       .  A
S1091      C1092   1.726       .  A
C1093      H1099   1.083       .  S
S1094      C1095   1.728       .  A
C1095      C1096   1.390       .  A
C1096      H1100   1.083       .  S
C1101      C1106   1.386       .  A
C1101      C1102   1.405       .  A
C1101      S1107   1.710       .  A
C1102      C1103   1.406       .  A
C1102      H1113   1.083       .  S
C1103      C1112   1.376       .  A
C1103      C1104   1.386       .  A
C1104      C1105   1.399       .  A
C1104      S1110   1.702       .  A
C1105      C1106   1.399       .  A
C1105      H1114   1.083       .  S
C1108      C1109   1.386   1_554  A
C1109      H1115   1.083       .  S
S1110      C1111   1.725       .  A
C1111      C1112   1.392       .  A
C1112      H1116   1.083       .  S
C1117      C1122   1.386       .  A
C1117      S1123   1.711       .  A
C1118      H1129   1.083   1_554  S
C1119      C1120   1.387       .  A
C1120      C1121   1.400       .  A
C1120      S1126   1.706       .  A
C1121      C1122   1.401       .  A
C1121      H1130   1.083       .  S
C1122      C1125   1.370       .  A
S1123      C1124   1.729       .  A
C1124      C1125   1.388       .  A
C1125      H1131   1.083       .  S
C1127      C1128   1.388   1_554  A
C1128      H1132   1.083       .  S
C1133      C1138   1.386       .  A
C1133      C1134   1.405       .  A
C1133      S1139   1.711       .  A
C1134      C1135   1.405       .  A
C1134      H1145   1.083       .  S
C1135      C1144   1.374       .  A
C1135      C1136   1.386       .  A
C1136      C1137   1.403       .  A
C1136      S1142   1.708       .  A
C1137      C1138   1.404       .  A
C1137      H1146   1.083       .  S
C1138      C1141   1.373       .  A
S1139      C1140   1.728       .  A
C1140      C1141   1.392       .  A
C1141      H1147   1.083       .  S
S1142      C1143   1.724       .  A
C1143      C1144   1.390       .  A
C1144      H1148   1.083       .  S
C1149      C1154   1.385       .  A
C1149      C1150   1.407       .  A
C1149      S1155   1.710       .  A
C1150      C1151   1.407       .  A
C1150      H1161   1.083       .  S
C1151      C1160   1.378       .  A
C1151      C1152   1.386       .  A
C1152      C1153   1.403       .  A
C1152      S1158   1.707       .  A
C1153      C1154   1.404       .  A
C1153      H1162   1.083       .  S
C1154      C1157   1.375       .  A
S1155      C1156   1.732       .  A
C1156      C1157   1.391       .  A
C1157      H1163   1.082       .  S
S1158      C1159   1.726       .  A
C1159      C1160   1.391       .  A
C1160      H1164   1.083       .  S
C1165      C1170   1.387       .  A
C1165      C1166   1.400       .  A
C1165      S1171   1.705       .  A
C1166      C1167   1.402       .  A
C1166      H1177   1.083       .  S
C1167      C1176   1.368       .  A
C1167      C1168   1.387       .  A
C1168      C1169   1.402       .  A
C1168      S1174   1.710       .  A
C1169      C1170   1.403       .  A
C1169      H1178   1.083       .  S
C1170      C1173   1.371       .  A
S1171      C1172   1.724       .  A
C1172      C1173   1.387       .  A
C1173      H1179   1.083       .  S
S1174      C1175   1.724       .  A
C1175      C1176   1.387       .  A
C1176      H1180   1.083       .  S
C1181      C1186   1.387       .  A
C1181      C1182   1.401       .  A
C1181      S1187   1.705       .  A
C1182      C1183   1.402       .  A
C1182      H1193   1.083       .  S
C1183      C1192   1.373       .  A
C1183      C1184   1.385       .  A
C1184      C1185   1.405       .  A
C1184      S1190   1.709       .  A
C1185      C1186   1.405       .  A
C1185      H1194   1.083       .  S
C1186      C1189   1.374       .  A
S1187      C1188   1.723       .  A
C1188      C1189   1.389       .  A
C1189      H1195   1.083       .  S
S1190      C1191   1.730       .  A
C1191      C1192   1.390       .  A
C1192      H1196   1.083       .  S
C1197      C1202   1.387       .  A
C1197      C1198   1.404       .  A
C1197      S1203   1.707       .  A
C1198      C1199   1.404       .  A
C1198      H1209   1.083       .  S
C1199      C1208   1.375       .  A
C1199      C1200   1.386       .  A
C1200      S1206   1.705       .  A
C1201      H1210   1.083       .  S
C1204      C1205   1.387   1_554  A
C1205      H1211   1.083       .  S
S1206      C1207   1.725       .  A
C1207      C1208   1.390       .  A
C1208      H1212   1.083       .  S
C1213      C1218   1.386       .  A
C1213      C1214   1.399       .  A
C1213      S1219   1.699       .  A
C1214      C1215   1.399       .  A
C1214      H1225   1.083       .  S
C1215      C1224   1.369       .  A
C1215      C1216   1.387       .  A
C1216      C1217   1.404       .  A
C1217      C1218   1.404       .  A
C1218      C1221   1.374       .  A
S1219      C1220   1.727       .  A
C1220      C1221   1.391       .  A
C1221      H1227   1.082       .  S
S1222      C1223   1.726       .  A
C1224      H1228   1.083       .  S
C1229      C1234   1.386       .  A
C1229      C1230   1.403       .  A
C1229      S1235   1.708       .  A
C1230      C1231   1.404       .  A
C1230      H1241   1.083       .  S
C1231      C1240   1.372       .  A
C1231      C1232   1.386       .  A
C1232      C1233   1.402       .  A
C1233      C1234   1.403       .  A
C1234      C1237   1.371       .  A
S1235      C1236   1.727       .  A
C1236      C1237   1.388       .  A
C1237      H1243   1.083       .  S
S1238      C1239   1.723       .  A
C1240      H1244   1.083       .  S
C1245      C1250   1.386       .  A
C1245      C1246   1.399       .  A
C1245      S1251   1.704       .  A
C1246      C1247   1.400       .  A
C1246      H1257   1.083       .  S
C1247      C1256   1.368       .  A
C1247      C1248   1.387       .  A
C1248      C1249   1.403       .  A
C1249      C1250   1.405       .  A
C1250      C1253   1.372       .  A
S1251      C1252   1.725       .  A
C1252      C1253   1.390       .  A
C1253      H1259   1.083       .  S
S1254      C1255   1.724       .  A
C1256      H1260   1.083       .  S
C1261      C1266   1.386       .  A
C1261      C1262   1.401       .  A
C1261      S1267   1.703       .  A
C1262      C1263   1.401       .  A
C1262      H1273   1.083       .  S
C1263      C1272   1.372       .  A
C1263      C1264   1.387       .  A
C1264      C1265   1.405       .  A
C1264      S1270   1.709       .  A
C1265      C1266   1.405       .  A
C1265      H1274   1.083       .  S
C1266      C1269   1.376       .  A
S1267      C1268   1.727       .  A
C1268      C1269   1.390       .  A
C1269      H1275   1.083       .  S
S1270      C1271   1.727       .  A
C1271      C1272   1.386       .  A
C1272      H1276   1.083       .  S
C1277      C1282   1.386       .  A
C1277      C1278   1.401       .  A
C1277      S1283   1.707       .  A
C1278      C1279   1.402       .  A
C1278      H1289   1.083       .  S
C1279      C1288   1.371       .  A
C1279      C1280   1.386       .  A
C1280      C1281   1.406       .  A
C1280      S1286   1.712       .  A
C1281      C1282   1.406       .  A
C1281      H1290   1.083       .  S
C1282      C1285   1.375       .  A
S1283      C1284   1.724       .  A
C1284      C1285   1.391       .  A
C1285      H1291   1.083       .  S
S1286      C1287   1.728       .  A
C1287      C1288   1.387       .  A
C1288      H1292   1.083       .  S
C1293      C1298   1.386       .  A
C1293      C1294   1.405       .  A
C1293      S1299   1.710       .  A
C1294      C1295   1.406       .  A
C1294      H1305   1.083       .  S
C1295      C1304   1.375       .  A
C1295      C1296   1.387       .  A
C1296      C1297   1.400       .  A
C1296      S1302   1.705       .  A
C1297      C1298   1.401       .  A
C1297      H1306   1.083       .  S
C1298      C1301   1.370       .  A
S1299      C1300   1.727       .  A
C1300      C1301   1.387       .  A
C1301      H1307   1.083       .  S
S1302      C1303   1.724       .  A
C1303      C1304   1.389       .  A
C1304      H1308   1.083       .  S
C1309      C1314   1.386       .  A
C1309      C1310   1.404       .  A
C1309      S1315   1.709       .  A
C1310      C1311   1.405       .  A
C1310      H1321   1.083       .  S
C1311      C1320   1.372       .  A
C1311      C1312   1.387       .  A
C1312      C1313   1.397       .  A
C1312      S1318   1.702       .  A
C1313      C1314   1.398       .  A
C1313      H1322   1.083       .  S
C1314      C1317   1.365       .  A
S1315      C1316   1.728       .  A
C1316      C1317   1.385       .  A
C1317      H1323   1.083       .  S
S1318      C1319   1.721       .  A
C1319      C1320   1.389       .  A
C1320      H1324   1.083       .  S
C1325      C1330   1.387       .  A
C1325      C1326   1.399       .  A
C1325      S1331   1.702       .  A
C1326      C1327   1.399       .  A
C1326      H1337   1.083       .  S
C1327      C1336   1.367       .  A
C1327      C1328   1.386       .  A
C1328      C1329   1.399       .  A
C1328      S1334   1.701       .  A
C1329      C1330   1.400       .  A
C1332      C1333   1.384   1_554  A
C1333      H1339   1.083       .  S
S1334      C1335   1.726       .  A
C1335      C1336   1.387       .  A
C1336      H1340   1.082       .  S
C1341      C1346   1.385       .  A
C1341      C1342   1.404       .  A
C1341      S1347   1.706       .  A
C1342      C1343   1.404       .  A
C1342      H1353   1.083       .  S
C1343      C1352   1.374       .  A
C1343      C1344   1.387       .  A
C1344      C1345   1.400       .  A
C1345      C1346   1.400       .  A
C1345      H1354   1.083       .  S
C1346      C1349   1.369       .  A
S1347      C1348   1.729       .  A
C1348      C1349   1.389       .  A
C1349      H1355   1.083       .  S
S1350      C1351   1.725       .  A
C1352      H1356   1.083       .  S
