geometry optimzed in LAMMPS
_audit_creation_date              2020-12-01 
_audit_creation_method            'lammps2cif' 
_symmetry_space_group_name_H-M    'P1' 
_symmetry_Int_Tables_number       1 
_symmetry_cell_setting            triclinic 
loop_ 
_symmetry_equiv_pos_as_xyz 
  x,y,z 
_cell_length_a                    66.2861107 
_cell_length_b                    67.17103091009238 
_cell_length_c                    41.25547511965418 
_cell_angle_alpha                 90.46420068760399 
_cell_angle_beta                  89.7601650812778 
_cell_angle_gamma                 122.42022211575426 
loop_ 
_atom_site_label 
_atom_site_type_symbol 
_atom_site_fract_x 
_atom_site_fract_y 
_atom_site_fract_z 
_atom_site_charge 
C1          C  0.50566319  0.84524563  0.98147368     0.03100
C2          C  0.51268212  0.85623663  0.45095909    -0.13000
C3          C  0.51326905  0.87707906  0.44538422     0.00600
C4          C  0.50734331  0.88724978  0.47029958    -0.11500
C5          C  0.50067685  0.87664125  0.00076218     0.03100
C6          C  0.49925747  0.85536558  0.00612575    -0.11000
H7          H  0.51789431  0.84873437  0.43185578     0.08700
H8          H  0.50862805  0.90385836  0.46628831     0.06300
H9          H  0.49407651  0.84723017  0.02970246     0.06100
C10         C  0.34221108  0.90584869  0.99744024     0.03100
C11         C  0.35023477  0.91950093  0.02587592    -0.13000
C12         C  0.36928611  0.94299283  0.02507706     0.00600
C13         C  0.37931391  0.95375672  0.49511060    -0.11500
C14         C  0.37168391  0.94045163  0.46619088     0.03100
C15         C  0.35327351  0.91636864  0.46768095    -0.11000
H16         H  0.34246630  0.91142170  0.04907164     0.08700
H17         H  0.39391653  0.97208301  0.49461133     0.06300
H18         H  0.34780695  0.90566868  0.44583771     0.06100
O19         O  0.52498769  0.00827415  0.29953327    -0.80100
O20         O  0.55583993  0.04257520  0.17047519    -0.80100
O21         O  0.52473937  0.99137104  0.19241717    -0.80200
O22         O  0.57701341  0.07833877  0.26216578    -0.80100
O23         O  0.51138131  0.00755800  0.16103559    -0.80200
O24         O  0.56273136  0.04503670  0.28430330    -0.80100
O25         O  0.57494336  0.07529037  0.19748747    -0.80100
O26         O  0.53055816  0.99083901  0.25840938    -0.80200
C27         C  0.53018472  0.99369465  0.28870878     1.09600
C28         C  0.57474124  0.06206301  0.17542987     1.09400
C29         C  0.51588078  0.99172534  0.16569862     1.09600
C30         C  0.57999225  0.06564161  0.28093981     1.09500
O31         O  0.53019835  0.05312609  0.31304475    -0.80100
O32         O  0.49361293  0.02917926  0.20361778    -0.80200
O33         O  0.48755906  0.98915820  0.26823916    -0.80100
O34         O  0.52876975  0.07260678  0.19856689    -0.80100
O35         O  0.52342452  0.05311310  0.15292440    -0.80200
O36         O  0.49460548  0.02420954  0.27231264    -0.80100
O37         O  0.53030559  0.07149221  0.26840036    -0.80100
O38         O  0.48169098  0.99209943  0.20502043    -0.80200
Co39       Co  0.52963244  0.03642295  0.27546242     1.51500
Co40       Co  0.52559033  0.03692961  0.18850273     1.51700
Co41       Co  0.50825969  0.99352955  0.23070426     1.51600
Co42       Co  0.55015330  0.06896533  0.23142897     1.51500
O43         O  0.53256859  0.02976022  0.23086314    -1.42100
C44         C  0.52910865  0.06961030  0.29972051     1.09500
C45         C  0.47675128  0.00783472  0.20226452     1.09600
C46         C  0.48067529  0.00238976  0.27746930     1.09500
C47         C  0.52509598  0.07049404  0.16765849     1.09500
C48         C  0.52348688  0.21320065  0.98372842     0.03100
C49         C  0.52237279  0.20157337  0.45460533    -0.13000
C50         C  0.52097534  0.17996077  0.45513641     0.00600
C51         C  0.52180896  0.17063432  0.48493393    -0.11500
C52         C  0.52276583  0.18191980  0.01393569     0.03100
C53         C  0.52310507  0.20287980  0.01340398    -0.11000
H54         H  0.52222759  0.20913397  0.43172595     0.08700
H55         H  0.52138935  0.15428270  0.48550505     0.06300
H56         H  0.52338795  0.21136948  0.03623639     0.06100
C57         C  0.74104397  0.16940607  0.98357516     0.03100
C58         C  0.72845958  0.15729952  0.01174589    -0.13000
C59         C  0.70528623  0.13697550  0.00987413     0.00600
C60         C  0.69485998  0.12860080  0.97922271    -0.11500
C61         C  0.70723253  0.13999190  0.45075302     0.03100
C62         C  0.73048181  0.16016115  0.45300732    -0.11000
H63         H  0.73630575  0.16431052  0.03532470     0.08700
H64         H  0.67656909  0.11361534  0.97750526     0.06300
H65         H  0.73980673  0.16932996  0.43111035     0.06100
O66         O  0.06868905  0.58029061  0.30304165    -0.80100
O67         O  0.02904260  0.55586747  0.23087953    -0.80100
O68         O  0.08103275  0.57461185  0.23419834    -0.80200
O69         O  0.99211927  0.51841401  0.30497181    -0.80100
O70         O  0.06175169  0.55707542  0.18925631    -0.80200
O71         O  0.02078589  0.55549243  0.30815733    -0.80100
O72         O  0.99630981  0.52082052  0.23857508    -0.80100
O73         O  0.09634729  0.57298984  0.29510968    -0.80200
C74         C  0.09023219  0.58673369  0.30565716     1.09600
C75         C  0.00667601  0.54187095  0.22781335     1.09400
C76         C  0.07750233  0.57568353  0.20359949     1.09600
C77         C  0.99964461  0.53938770  0.31418738     1.09500
O78         O  0.02214702  0.51832292  0.34305261    -0.80100
O79         O  0.06801015  0.52582385  0.22122033    -0.80200
O80         O  0.07406455  0.52341156  0.29468074    -0.80100
O81         O  0.01598658  0.49015708  0.24238212    -0.80100
O82         O  0.02361145  0.51410620  0.20315102    -0.80200
O83         O  0.06966747  0.54203535  0.33590923    -0.80100
O84         O  0.01357922  0.49099482  0.30628381    -0.80100
O85         O  0.10314540  0.55040325  0.24371368    -0.80200
Co86       Co  0.04518362  0.54882060  0.31986823     1.51500
Co87       Co  0.04870360  0.54188232  0.22899398     1.51700
Co88       Co  0.07533504  0.54661463  0.26389998     1.51600
Co89       Co  0.00660691  0.50646817  0.27286810     1.51500
O90         O  0.04110442  0.53411891  0.27585225    -1.42100
C91         C  0.01511832  0.49711919  0.33543851     1.09500
C92         C  0.09064079  0.53423000  0.22323757     1.09600
C93         C  0.07584112  0.52825854  0.32485647     1.09500
C94         C  0.01451149  0.49321589  0.21286872     1.09500
C95         C  0.18151679  0.47374885  0.01415077     0.03100
C96         C  0.16770632  0.47217873  0.48712707    -0.13000
C97         C  0.15018305  0.47770989  0.49023559     0.00600
C98         C  0.14416075  0.48167368  0.02103645    -0.11500
C99         C  0.15629720  0.48150661  0.04856624     0.03100
C100        C  0.17556364  0.47850410  0.04489629    -0.11000
H101        H  0.17179564  0.46843889  0.46337252     0.08700
H102        H  0.13049808  0.48580546  0.02343901     0.06300
H103        H  0.18611167  0.48027718  0.06595834     0.06100
C104        C  0.89189691  0.33141949  0.01615398     0.03100
C105        C  0.90367295  0.34442306  0.48803561    -0.13000
C106        C  0.92298562  0.36783142  0.49046521     0.00600
C107        C  0.92934329  0.37886688  0.02075564    -0.11500
C108        C  0.91845640  0.36643067  0.04901099     0.03100
C109        C  0.90013336  0.34243413  0.04685714    -0.11000
H110        H  0.89796929  0.33628013  0.46433263     0.08700
H111        H  0.94368427  0.39733862  0.02248362     0.06300
H112        H  0.89192005  0.33262868  0.06884477     0.06100
C113        C  0.88216932  0.56036984  0.02833964     0.03100
C114        C  0.89251587  0.55910333  0.49918869    -0.13000
C115        C  0.91374455  0.55939819  0.49924243     0.00600
C116        C  0.92572816  0.56262683  0.02875110    -0.11500
C117        C  0.91647419  0.56523964  0.05808763     0.03100
C118        C  0.89445850  0.56373988  0.05767111    -0.11000
H119        H  0.88346921  0.55702285  0.47620086     0.08700
H120        H  0.94202958  0.56253847  0.02882587     0.06300
H121        H  0.88667179  0.56467952  0.08024225     0.06100
C122        C  0.20413379  0.73733139  0.01486725     0.03100
C123        C  0.19296632  0.72897134  0.48444351    -0.13000
C124        C  0.17383755  0.70540424  0.48051392     0.00600
C125        C  0.16539608  0.69073980  0.00788030    -0.11500
C126        C  0.17527971  0.69938317  0.03857875     0.03100
C127        C  0.19506189  0.72249689  0.04192317    -0.11000
H128        H  0.19946818  0.74065645  0.46385193     0.08700
H129        H  0.15062771  0.67247742  0.00543168     0.06300
H130        H  0.20322100  0.72892698  0.06548494     0.06100
O131        O  0.54377644  0.52539734  0.18087463    -0.80100
O132        O  0.52584515  0.54739878  0.31782658    -0.80100
O133        O  0.55177411  0.49950542  0.26624200    -0.80200
O134        O  0.49614000  0.52986884  0.21626909    -0.80100
O135        O  0.53421691  0.51292857  0.29727201    -0.80200
O136        O  0.52195184  0.54880514  0.17736228    -0.80100
O137        O  0.49985842  0.52861854  0.28048221    -0.80100
O138        O  0.52355874  0.50329070  0.22211128    -0.80200
C139        C  0.52846849  0.50514890  0.19216485     1.09600
C140        C  0.50421097  0.53498003  0.30949649     1.09400
C141        C  0.53913435  0.49697028  0.29074341     1.09600
C142        C  0.50076670  0.53387957  0.18658168     1.09500
O143        O  0.56215007  0.59007319  0.20724214    -0.80100
O144        O  0.56862290  0.55221199  0.32659176    -0.80200
O145        O  0.57479980  0.53050618  0.21805793    -0.80100
O146        O  0.53192327  0.58085646  0.28169240    -0.80100
O147        O  0.56700470  0.58461107  0.28844185    -0.80200
O148        O  0.58571476  0.56682192  0.21054934    -0.80100
O149        O  0.52556910  0.58024796  0.21578460    -0.80100
O150        O  0.58093233  0.54547463  0.28042371    -0.80200
Co151      Co  0.55345481  0.55790821  0.19699455     1.51500
Co152      Co  0.55174943  0.54984233  0.28911309     1.51700
Co153      Co  0.55017733  0.52491537  0.25144311     1.51600
Co154      Co  0.51459868  0.55418826  0.24862380     1.51500
O155        O  0.54166848  0.54883065  0.24305069    -1.42100
C156        C  0.54604939  0.59443695  0.20369686     1.09500
C157        C  0.58376477  0.54991943  0.31127744     1.09600
C158        C  0.58954300  0.55056105  0.20633713     1.09500
C159        C  0.55351047  0.59260453  0.29201214     1.09500
C160        C  0.50899064  0.35465689  0.49768648     0.03100
C161        C  0.50812712  0.36489725  0.02731337    -0.13000
C162        C  0.50344519  0.38297519  0.02776527     0.00600
C163        C  0.49973945  0.39075714  0.49842168    -0.11500
C164        C  0.50224129  0.38208259  0.46868977     0.03100
C165        C  0.50577051  0.36330889  0.46849030    -0.11000
H166        H  0.51160538  0.35912986  0.04987474     0.08700
H167        H  0.49701640  0.40528602  0.49860501     0.06300
H168        H  0.50731690  0.35626983  0.44555370     0.06100
C169        C  0.33847130  0.48408455  0.49881935     0.03100
C170        C  0.34926133  0.48231828  0.02685008    -0.13000
C171        C  0.37236626  0.48651389  0.02559819     0.00600
C172        C  0.38437461  0.49214980  0.49616489    -0.11500
C173        C  0.37376467  0.49359283  0.46797404     0.03100
C174        C  0.35078506  0.48967984  0.46913611    -0.11000
H175        H  0.33982337  0.47810006  0.04964763     0.08700
H176        H  0.40248148  0.49590171  0.49519255     0.06300
H177        H  0.34269891  0.49124731  0.44733590     0.06100
C178        C  0.72636542  0.55132305  0.50217252     0.03100
C179        C  0.71491560  0.55242495  0.03079136    -0.13000
C180        C  0.69437462  0.55331512  0.02863016     0.00600
C181        C  0.68557284  0.55371482  0.49810518    -0.11500
C182        C  0.69723547  0.55392228  0.46960276     0.03100
C183        C  0.71746726  0.55233119  0.47168221    -0.11000
H184        H  0.72181746  0.55209846  0.05441418     0.08700
H185        H  0.66974641  0.55450660  0.49670260     0.06300
H186        H  0.72652165  0.55230388  0.44971292     0.06100
C187        C  0.54501419  0.72195515  0.49146086     0.03100
C188        C  0.55015166  0.71551021  0.46162451    -0.13000
C189        C  0.55781689  0.69980476  0.46049120     0.00600
C190        C  0.56046637  0.69051214  0.48920355    -0.11500
C191        C  0.55545556  0.69656522  0.01900666     0.03100
C192        C  0.54784113  0.71246059  0.02019957    -0.11000
H193        H  0.54745140  0.72213271  0.43921384     0.08700
H194        H  0.56572641  0.67777141  0.48807522     0.06300
H195        H  0.54304335  0.71668213  0.04326155     0.06100
C196        C  0.48432601  0.52993881  0.33161623     0.01300
C197        C  0.48478361  0.52496410  0.36475457     0.04200
C198        C  0.46551914  0.52000476  0.38504458    -0.11900
C199        C  0.44527478  0.51879083  0.37205591     0.23500
C200        C  0.44465263  0.52365090  0.33922386    -0.12500
C201        C  0.46441171  0.53007720  0.31928401     0.04900
C202        C  0.42458258  0.51239100  0.39306162     0.27300
C203        C  0.40674369  0.48846877  0.39773047    -0.13100
C204        C  0.38843273  0.48226103  0.42033893     0.05400
C205        C  0.38791624  0.49998570  0.43805350    -0.09100
C206        C  0.40500454  0.52393847  0.43206417     0.06200
C207        C  0.42331480  0.53016068  0.40945081    -0.13500
Br208      Br  0.41646941  0.52134695  0.32172413    -0.05600
Br209      Br  0.51093607  0.52366794  0.38249050     0.00100
Br210      Br  0.36523392  0.44949345  0.42925140     0.00500
Br211      Br  0.44755080  0.56290983  0.40234002    -0.03900
Br212      Br  0.46432803  0.54080880  0.27589979     0.00600
Br213      Br  0.46664737  0.51484431  0.43081230    -0.03200
Br214      Br  0.40830979  0.46428555  0.37449174    -0.04000
Br215      Br  0.40448225  0.54805257  0.45710765    -0.00100
C216        C  0.48088832  0.52234540  0.16279737     0.01300
C217        C  0.48221036  0.53388441  0.13345869     0.04200
C218        C  0.46262063  0.52383064  0.11229825    -0.11900
C219        C  0.44125962  0.50285251  0.12076453     0.23500
C220        C  0.43988382  0.49090200  0.14923035    -0.12500
C221        C  0.45972433  0.50031291  0.17001567     0.04900
C222        C  0.41975313  0.49490328  0.10097337     0.27300
C223        C  0.40880708  0.50796791  0.10226295    -0.13100
C224        C  0.39238528  0.50465577  0.07826364     0.05400
C225        C  0.38511692  0.48664830  0.05484819    -0.09100
C226        C  0.39403689  0.47171290  0.05606798     0.06200
C227        C  0.41208050  0.47644705  0.07830517    -0.13500
Br228      Br  0.41029790  0.46209728  0.16026210    -0.05600
Br229      Br  0.50966582  0.56443743  0.12238404     0.00100
Br230      Br  0.38304657  0.52723418  0.07492274     0.00500
Br231      Br  0.42776579  0.45917680  0.07581082    -0.03900
Br232      Br  0.45713432  0.48233675  0.20801172     0.00600
Br233      Br  0.46446451  0.53946591  0.07211398    -0.03200
Br234      Br  0.41812915  0.53198266  0.13526733    -0.04000
Br235      Br  0.38257889  0.44568935  0.02590235    -0.00100
C236        C  0.56142475  0.61413058  0.31229310     0.01300
C237        C  0.56692218  0.61435368  0.34553713     0.04200
C238        C  0.56950195  0.63224749  0.36639237    -0.11900
C239        C  0.56671769  0.65012261  0.35437216     0.23500
C240        C  0.56320353  0.65122839  0.32112901    -0.12500
C241        C  0.56028855  0.63318754  0.30023333     0.04900
C242        C  0.56434460  0.66567789  0.37748653     0.27300
C243        C  0.54152304  0.65834157  0.38977243    -0.13100
C244        C  0.53928964  0.67067520  0.41566083     0.05400
C245        C  0.55987411  0.69025689  0.42935439    -0.09100
C246        C  0.58248064  0.69868790  0.41551944     0.06200
C247        C  0.58474624  0.68631904  0.38956403    -0.13500
Br248      Br  0.56147775  0.67715890  0.30484380    -0.05600
Br249      Br  0.56867300  0.58929728  0.36432888     0.00100
Br250      Br  0.50814524  0.66001312  0.43355001     0.00500
Br251      Br  0.61574500  0.69672357  0.37165295    -0.03900
Br252      Br  0.55446345  0.63497312  0.25539660     0.00600
Br253      Br  0.57530670  0.63162202  0.41220115    -0.03200
Br254      Br  0.51346454  0.63044997  0.37249157    -0.04000
Br255      Br  0.61021103  0.72674976  0.43282483    -0.00100
C256        C  0.55013261  0.61404241  0.18161838     0.01300
C257        C  0.53171057  0.61846199  0.17529091     0.04200
C258        C  0.53493186  0.63468023  0.15118023    -0.11900
C259        C  0.55484958  0.64434749  0.13046544     0.23500
C260        C  0.57318550  0.64032457  0.13663967    -0.12500
C261        C  0.57187824  0.62715850  0.16382262     0.04900
C262        C  0.55588161  0.65804625  0.10164938     0.27300
C263        C  0.54086339  0.64613238  0.07496327    -0.13100
C264        C  0.53963649  0.65889843  0.04914320     0.05400
C265        C  0.55507869  0.68367164  0.04825584    -0.09100
C266        C  0.57078548  0.69562969  0.07440670     0.06200
C267        C  0.57073319  0.68287876  0.10144198    -0.13500
Br268      Br  0.59947652  0.65162393  0.10658461    -0.05600
Br269      Br  0.50156068  0.60277703  0.19833381     0.00100
Br270      Br  0.51565806  0.64230623  0.01597812     0.00500
Br271      Br  0.59082237  0.69935639  0.13830235    -0.03900
Br272      Br  0.60098184  0.62922021  0.17678312     0.00600
Br273      Br  0.51187869  0.64365673  0.14582198    -0.03200
Br274      Br  0.52230517  0.61218870  0.07322205    -0.04000
Br275      Br  0.59287159  0.72931920  0.07278634    -0.00100
C276        C  0.60373599  0.55130509  0.32927694     0.01300
C277        C  0.62741922  0.56420284  0.31746250     0.04200
C278        C  0.64592634  0.56509270  0.33548884    -0.11900
C279        C  0.64090515  0.55367138  0.36561804     0.23500
C280        C  0.61725686  0.54044386  0.37710601    -0.12500
C281        C  0.59874236  0.53913709  0.35897196     0.04900
C282        C  0.66034660  0.55666393  0.38680405     0.27300
C283        C  0.66519429  0.53870252  0.38857389    -0.13100
C284        C  0.67843015  0.53817922  0.41481266     0.05400
C285        C  0.68799958  0.55647758  0.43824294    -0.09100
C286        C  0.68567704  0.57601004  0.43383376     0.06200
C287        C  0.67129032  0.57574923  0.40875414    -0.09900
Br288      Br  0.61028778  0.52432005  0.41817382    -0.05600
Br289      Br  0.63498638  0.58222292  0.27817974     0.00100
Br290      Br  0.68105605  0.51115511  0.42018561     0.00500
Br291      Br  0.66499198  0.60061133  0.40592285    -0.03900
Br292      Br  0.56640718  0.52003262  0.37495643     0.00600
Br293      Br  0.67823810  0.58201418  0.31935156    -0.03200
Br294      Br  0.65233922  0.51418417  0.35594443    -0.04000
Br295      Br  0.70121337  0.60303447  0.96306330    -0.00100
C296        C  0.68159938  0.55339028  0.05794276     0.01300
C297        C  0.69164317  0.57353807  0.07817488     0.04200
C298        C  0.67826614  0.57431744  0.10416330    -0.11900
C299        C  0.65488368  0.55503394  0.10977619     0.23500
C300        C  0.64492653  0.53489228  0.08967920    -0.12500
C301        C  0.65834386  0.53396355  0.06401462     0.04900
C302        C  0.64009636  0.55610767  0.13579604     0.27300
C303        C  0.63869384  0.54612593  0.16622292    -0.13100
C304        C  0.62231401  0.54441048  0.18958182     0.05400
C305        C  0.60786772  0.55349035  0.18291022    -0.09100
C306        C  0.60928772  0.56339083  0.15210098     0.06200
C307        C  0.62551348  0.56483572  0.12880216    -0.13500
Br308      Br  0.61243377  0.50899190  0.09653582    -0.05600
Br309      Br  0.72310486  0.60055680  0.06920356     0.00100
Br310      Br  0.61911012  0.52864825  0.22996641     0.00500
Br311      Br  0.62691749  0.57753828  0.08636428    -0.03900
Br312      Br  0.64479028  0.50603113  0.03705314     0.00600
Br313      Br  0.69139927  0.60207358  0.13129971    -0.03200
Br314      Br  0.65879147  0.53412890  0.17522375    -0.04000
Br315      Br  0.58702592  0.57218238  0.13947780    -0.00100
C316        C  0.53009104  0.47578729  0.31151122     0.01300
C317        C  0.50735764  0.46504778  0.32644455     0.04200
C318        C  0.50031768  0.44698710  0.34930053    -0.11900
C319        C  0.51527162  0.43860147  0.35600534     0.23500
C320        C  0.53673004  0.44747421  0.33870355    -0.12500
C321        C  0.54457543  0.46647305  0.31734859     0.04900
C322        C  0.51067920  0.42340411  0.38454817     0.27300
C323        C  0.52384233  0.43398244  0.41301531    -0.13100
C324        C  0.52273011  0.42005710  0.43875992     0.05400
C325        C  0.50532450  0.39561587  0.43878744    -0.09100
C326        C  0.49116316  0.38494362  0.41078310     0.06200
C327        C  0.49479633  0.39872321  0.38307503    -0.13500
Br328      Br  0.55586921  0.43405223  0.34571557    -0.05600
Br329      Br  0.48517888  0.47408780  0.31496326     0.00100
Br330      Br  0.54682599  0.43459962  0.47240341     0.00500
Br331      Br  0.47849029  0.38398324  0.34306113    -0.03900
Br332      Br  0.57629896  0.48067115  0.29909225     0.00600
Br333      Br  0.47064443  0.43435575  0.37259277    -0.03200
Br334      Br  0.54305598  0.46775784  0.41741974    -0.04000
Br335      Br  0.46634955  0.35189573  0.41046442    -0.00100
C336        C  0.50481744  0.39587917  0.05801858     0.01300
C337        C  0.48518526  0.39752463  0.06718971     0.04200
C338        C  0.48787717  0.41368301  0.09133421    -0.11900
C339        C  0.50996442  0.42783399  0.10720946     0.23500
C340        C  0.52901613  0.42486999  0.10008033    -0.12500
C341        C  0.52668604  0.40935249  0.07503305     0.04900
C342        C  0.51352745  0.44709572  0.12929068     0.27300
C343        C  0.51845171  0.46850103  0.11610103    -0.13100
C344        C  0.52070436  0.48650552  0.13646131     0.05400
C345        C  0.51935940  0.48383378  0.17069085    -0.09100
C346        C  0.51245828  0.46142839  0.18352864     0.06200
C347        C  0.51011772  0.44343490  0.16287916    -0.13500
Br348      Br  0.55856640  0.44276063  0.12394375    -0.05600
Br349      Br  0.45460914  0.37802410  0.04612989     0.00100
Br350      Br  0.52361818  0.51384056  0.11638990     0.00500
Br351      Br  0.50269821  0.41367450  0.18045348    -0.03900
Br352      Br  0.55433258  0.40861458  0.06214725     0.00600
Br353      Br  0.46161538  0.41734050  0.10183805    -0.03200
Br354      Br  0.52250810  0.47320361  0.06976672    -0.04000
Br355      Br  0.50506401  0.45409011  0.22884817    -0.00100
C356        C  0.74811019  0.55034271  0.50492603     0.01300
C357        C  0.77012477  0.56889494  0.49268065     0.04200
C358        C  0.79087346  0.56831595  0.49625294    -0.11900
C359        C  0.79041059  0.55089006  0.01499333     0.23500
C360        C  0.76855229  0.53261115  0.02792848    -0.12500
C361        C  0.74737841  0.53208301  0.02198742     0.04900
C362        C  0.81294640  0.55175934  0.02111219     0.27300
C363        C  0.81725201  0.53536328  0.50511941    -0.13100
C364        C  0.83898082  0.53687300  0.51030389     0.05400
C365        C  0.85789177  0.55672107  0.02773234    -0.09100
C366        C  0.85342344  0.57288194  0.04318925     0.06200
C367        C  0.83055210  0.56943196  0.04151535    -0.13500
Br368      Br  0.76774642  0.50878046  0.05478104    -0.05600
Br369      Br  0.77250969  0.59619920  0.47341890     0.00100
Br370      Br  0.84221509  0.51148430  0.49466473     0.00500
Br371      Br  0.82331856  0.58920134  0.06674258    -0.03900
Br372      Br  0.71711210  0.50521554  0.03585107     0.00600
Br373      Br  0.82031055  0.59226624  0.47605162    -0.03200
Br374      Br  0.79412261  0.51223228  0.47505776    -0.04000
Br375      Br  0.87878910  0.60111547  0.06404059    -0.00100
C376        C  0.31472421  0.48096746  0.50078215     0.01300
C377        C  0.31273439  0.49955502  0.01273835     0.04200
C378        C  0.29005842  0.49632193  0.01575386    -0.11900
C379        C  0.26958024  0.47504778  0.00521376     0.23500
C380        C  0.27161184  0.45663735  0.49271164    -0.12500
C381        C  0.29424787  0.45955739  0.49079539     0.04900
C382        C  0.24602034  0.47269959  0.00581493     0.27300
C383        C  0.22921564  0.45953421  0.03013578    -0.13100
C384        C  0.20735970  0.45836508  0.03131799     0.05400
C385        C  0.20316829  0.47232314  0.01009672    -0.09100
C386        C  0.22043440  0.48587782  0.48630811     0.06200
C387        C  0.24101681  0.48490796  0.48323677    -0.13500
Br388      Br  0.24375703  0.42795067  0.47698705    -0.05600
Br389      Br  0.34083814  0.52961774  0.02381530     0.00100
Br390      Br  0.18311984  0.43675454  0.06136949     0.00500
Br391      Br  0.26324761  0.50107666  0.44810791    -0.03900
Br392      Br  0.29735795  0.43433591  0.47445228     0.00600
Br393      Br  0.28702468  0.52120638  0.03390481    -0.03200
Br394      Br  0.23666523  0.44385774  0.06258229    -0.04000
Br395      Br  0.21824958  0.50813586  0.45946993    -0.00100
C396        C  0.99319896  0.54898065  0.20740781     0.01300
C397        C  0.98150501  0.53575385  0.17917254     0.04200
C398        C  0.97104129  0.54358071  0.15750623    -0.11900
C399        C  0.97016436  0.56357078  0.16497341     0.23500
C400        C  0.98141481  0.57675830  0.19333521    -0.12500
C401        C  0.99345190  0.56979882  0.21412647     0.04900
C402        C  0.95594740  0.56906303  0.14323635     0.27300
C403        C  0.96730176  0.58598363  0.11864007    -0.13100
C404        C  0.95387760  0.58614082  0.09232305     0.05400
C405        C  0.92936583  0.56817388  0.08912900    -0.09100
C406        C  0.91788454  0.55195033  0.11473187     0.06200
C407        C  0.93095205  0.55329043  0.14236315    -0.13500
Br408      Br  0.98011276  0.60407873  0.20366858    -0.05600
Br409      Br  0.97956817  0.50681051  0.16885409     0.00100
Br410      Br  0.96938682  0.61080175  0.06042105     0.00500
Br411      Br  0.91521903  0.53155173  0.17771631    -0.03900
Br412      Br  0.00932956  0.58816808  0.25246221     0.00600
Br413      Br  0.95804607  0.52692252  0.11682425    -0.03200
Br414      Br  0.00155929  0.60746319  0.11947525    -0.04000
Br415      Br  0.88526999  0.52557316  0.11057735    -0.00100
C416        C  0.98528749  0.54414895  0.33692868     0.01300
C417        C  0.99589989  0.55720282  0.36586500     0.04200
C418        C  0.98157745  0.55832101  0.39009747    -0.11900
C419        C  0.95672113  0.54671337  0.38573940     0.23500
C420        C  0.94620256  0.53453501  0.35654337    -0.12500
C421        C  0.96052249  0.53358864  0.33195267     0.04900
C422        C  0.94214625  0.54795035  0.41215398     0.27300
C423        C  0.93282104  0.53087428  0.43681448    -0.13100
C424        C  0.92257599  0.53417252  0.46464329     0.05400
C425        C  0.92274036  0.55514275  0.46869270    -0.09100
C426        C  0.93140564  0.57187898  0.44355113     0.06200
C427        C  0.94063010  0.56802123  0.41506601    -0.13500
Br428      Br  0.91214281  0.51870369  0.35073877    -0.05600
Br429      Br  0.02981193  0.57252199  0.37426060     0.00100
Br430      Br  0.90823205  0.51011608  0.99734178     0.00500
Br431      Br  0.95232916  0.59072264  0.38046618    -0.03900
Br432      Br  0.94650472  0.51901803  0.29073435     0.00600
Br433      Br  0.99582795  0.57499219  0.43029842    -0.03200
Br434      Br  0.93525642  0.50359809  0.43323273    -0.04000
Br435      Br  0.93212527  0.60081197  0.44891170    -0.00100
C436        C  0.00008921  0.47249907  0.19132609     0.01300
C437        C  0.97719216  0.45395611  0.20160535     0.04200
C438        C  0.96319501  0.43427897  0.18137794    -0.11900
C439        C  0.97128075  0.43347835  0.15013230     0.23500
C440        C  0.99394008  0.45200183  0.13962246    -0.12500
C441        C  0.00847348  0.47131745  0.16031699     0.04900
C442        C  0.95515656  0.41409990  0.12743020     0.27300
C443        C  0.95692434  0.39421988  0.12346832    -0.13100
C444        C  0.94322796  0.37715677  0.09948903     0.05400
C445        C  0.92724934  0.37962872  0.08004693    -0.09100
C446        C  0.92416452  0.39857266  0.08591994     0.06200
C447        C  0.93832175  0.41593479  0.10916692    -0.13500
Br448      Br  0.00474090  0.45106640  0.09647697    -0.05600
Br449      Br  0.96355574  0.45626071  0.24194127     0.00100
Br450      Br  0.94782264  0.35153573  0.09143877     0.00500
Br451      Br  0.93570466  0.44303865  0.11474315    -0.03900
Br452      Br  0.03997775  0.49586430  0.14630154     0.00600
Br453      Br  0.93255692  0.40845429  0.19604742    -0.03200
Br454      Br  0.97888061  0.39103591  0.15004324    -0.04000
Br455      Br  0.90131168  0.40133213  0.06070732    -0.00100
C456        C  0.93768086  0.38126823  0.46217876     0.01300
C457        C  0.96275330  0.39193766  0.46392150     0.04200
C458        C  0.97775043  0.41024518  0.44274416    -0.11900
C459        C  0.96769801  0.41630183  0.41777961     0.23500
C460        C  0.94275614  0.40328150  0.41300144    -0.12500
C461        C  0.92764659  0.38647073  0.43598451     0.04900
C462        C  0.98273030  0.43823152  0.39941171     0.27300
C463        C  0.98118998  0.45790671  0.40659892    -0.13100
C464        C  0.99222443  0.47760731  0.38626833     0.05400
C465        C  0.00644432  0.47841936  0.36006352    -0.09100
C466        C  0.01018099  0.45969419  0.35536614     0.06200
C467        C  0.99749839  0.43922163  0.37412646    -0.13500
Br468      Br  0.92944822  0.41008080  0.37628466    -0.05600
Br469      Br  0.97673949  0.38220593  0.99627577     0.00100
Br470      Br  0.98569639  0.50206522  0.39325825     0.00500
Br471      Br  0.99925796  0.41206406  0.36405887    -0.03900
Br472      Br  0.89365832  0.37305487  0.43331071     0.00600
Br473      Br  0.01186047  0.42848128  0.44993180    -0.03200
Br474      Br  0.96297213  0.45733313  0.44373948    -0.04000
Br475      Br  0.03291321  0.46191825  0.32371068    -0.00100
C476        C  0.14918042  0.48585161  0.08066003     0.01300
C477        C  0.12559017  0.47036492  0.09172807     0.04200
C478        C  0.11663323  0.47699867  0.11776009    -0.11900
C479        C  0.13180211  0.49831634  0.13456015     0.23500
C480        C  0.15611124  0.51261003  0.12563571    -0.12500
C481        C  0.16459029  0.50683310  0.09806389     0.04900
C482        C  0.12154824  0.50739514  0.15813562     0.27300
C483        C  0.11938673  0.52633009  0.14901839    -0.13100
C484        C  0.11076423  0.53591410  0.17126997     0.05400
C485        C  0.10166501  0.52508245  0.20149520    -0.09100
C486        C  0.10214957  0.50501122  0.20974676     0.06200
C487        C  0.11331820  0.49700900  0.18888400    -0.13500
Br488      Br  0.17729550  0.54116103  0.14973975    -0.05600
Br489      Br  0.10527266  0.44023812  0.07054368     0.00100
Br490      Br  0.11173254  0.56403511  0.15979137     0.00500
Br491      Br  0.11752844  0.47205012  0.20243379    -0.03900
Br492      Br  0.19644904  0.52899707  0.08234652     0.00600
Br493      Br  0.08299057  0.45801776  0.12809684    -0.03200
Br494      Br  0.12734009  0.53864117  0.10540479    -0.04000
Br495      Br  0.08650189  0.48778310  0.24859134    -0.00100
C496        C  0.14093508  0.48336966  0.46156409     0.01300
C497        C  0.12229059  0.46539218  0.44271497     0.04200
C498        C  0.11185009  0.47125983  0.41789870    -0.11900
C499        C  0.11988232  0.49508413  0.41229212     0.23500
C500        C  0.13893047  0.51305507  0.43067090    -0.12500
C501        C  0.14962091  0.50722917  0.45494931     0.04900
C502        C  0.10745442  0.50151897  0.38880113     0.27300
C503        C  0.11765621  0.51057038  0.35828166    -0.13100
C504        C  0.10763720  0.51969773  0.33775975     0.05400
C505        C  0.08689534  0.51936682  0.34729987    -0.09100
C506        C  0.07798041  0.51194300  0.37921081     0.06200
C507        C  0.08751081  0.50204038  0.39910485    -0.13500
Br508      Br  0.14961151  0.54568924  0.42359400    -0.05600
Br509      Br  0.11039257  0.43284387  0.45206418     0.00100
Br510      Br  0.12545935  0.53690296  0.29992778     0.00500
Br511      Br  0.07398442  0.49008482  0.44147816    -0.03900
Br512      Br  0.17596785  0.53204434  0.47968435     0.00600
Br513      Br  0.08597342  0.44680383  0.39236257    -0.03200
Br514      Br  0.14631263  0.51166581  0.34558959    -0.04000
Br515      Br  0.05517157  0.51790806  0.39849217    -0.00100
C516        C  0.16376077  0.68432851  0.06721870     0.01300
C517        C  0.14876653  0.68815167  0.08708847     0.04200
C518        C  0.13597194  0.67260860  0.11255540    -0.11900
C519        C  0.13693494  0.65238066  0.11698632     0.23500
C520        C  0.15199017  0.64855517  0.09724077    -0.12500
C521        C  0.16581996  0.66482938  0.07287724     0.04900
C522        C  0.12108823  0.63448773  0.14116231     0.27300
C523        C  0.13009675  0.63366653  0.17156773    -0.13100
C524        C  0.11563542  0.61529042  0.19327225     0.05400
C525        C  0.09157158  0.59803785  0.18495717    -0.09100
C526        C  0.08194008  0.60082471  0.15592252     0.06200
C527        C  0.09690942  0.61833744  0.13360587    -0.13500
Br528      Br  0.15283540  0.62050700  0.10269964    -0.05600
Br529      Br  0.14418040  0.71355480  0.07788596     0.00100
Br530      Br  0.13004130  0.61364899  0.23295814     0.00500
Br531      Br  0.08451802  0.61974352  0.09193780    -0.03900
Br532      Br  0.18745479  0.66041690  0.04700312     0.00600
Br533      Br  0.11658627  0.67858898  0.14102259    -0.03200
Br534      Br  0.16261171  0.65763581  0.18286250    -0.04000
Br535      Br  0.04803090  0.58159546  0.14668504    -0.00100
C536        C  0.10655019  0.60840147  0.32458890     0.01300
C537        C  0.11921126  0.60741418  0.35143904     0.04200
C538        C  0.12935459  0.62581279  0.37443109    -0.11900
C539        C  0.12867673  0.64615428  0.36955404     0.23500
C540        C  0.11766618  0.64803147  0.34167590    -0.12500
C541        C  0.10612660  0.62899592  0.31963101     0.04900
C542        C  0.13990385  0.66544280  0.39400657     0.27300
C543        C  0.12605541  0.66656636  0.41902560    -0.13100
C544        C  0.13731224  0.68215346  0.44534387     0.05400
C545        C  0.16255391  0.69516948  0.44827334    -0.09100
C546        C  0.17628521  0.69515157  0.42182300     0.06200
C547        C  0.16488727  0.68074146  0.39451821    -0.13500
Br548      Br  0.11798939  0.67650159  0.33429753    -0.05600
Br549      Br  0.12210869  0.58073738  0.35846544     0.00100
Br550      Br  0.11798093  0.68558716  0.47731477     0.00500
Br551      Br  0.18345278  0.68030670  0.35857695    -0.03900
Br552      Br  0.08970775  0.63122782  0.28260279     0.00600
Br553      Br  0.14297682  0.62262694  0.41395482    -0.03200
Br554      Br  0.09177764  0.64517177  0.41858803    -0.04000
Br555      Br  0.21062304  0.71277128  0.42314489    -0.00100
C556        C  0.87058017  0.30677584  0.01283981     0.01300
C557        C  0.84856868  0.30035230  0.02763022     0.04200
C558        C  0.82831954  0.27736768  0.02358116    -0.11900
C559        C  0.82904501  0.26125723  0.00222742     0.23500
C560        C  0.85063061  0.26786942  0.48634521    -0.12500
C561        C  0.87155182  0.28998914  0.49285149     0.04900
C562        C  0.80700090  0.23753844  0.99611589     0.27300
C563        C  0.80451478  0.21713830  0.00971145    -0.13100
C564        C  0.78356760  0.19479668  0.00423217     0.05400
C565        C  0.76423710  0.19273486  0.98658867    -0.09100
C566        C  0.76665505  0.21336815  0.47352514     0.06200
C567        C  0.78823299  0.23543507  0.47718923    -0.13500
Br568      Br  0.85129852  0.24678232  0.45489096    -0.05600
Br569      Br  0.84505257  0.32331576  0.05119898     0.00100
Br570      Br  0.78183427  0.16703247  0.02041254     0.00500
Br571      Br  0.79220356  0.26297654  0.45633682    -0.03900
Br572      Br  0.90160625  0.29642959  0.47547753     0.00600
Br573      Br  0.79937600  0.26788340  0.04730946    -0.03200
Br574      Br  0.82971917  0.21996439  0.03659241    -0.04000
Br575      Br  0.73992139  0.21221074  0.45299253    -0.00100
C576        C  0.52435707  0.23575010  0.98356850     0.01300
C577        C  0.50596112  0.23695870  0.46862980     0.04200
C578        C  0.50642173  0.25809825  0.46955517    -0.11900
C579        C  0.52403207  0.27747441  0.48773630     0.23500
C580        C  0.54259413  0.27654731  0.00226106    -0.12500
C581        C  0.54316090  0.25594048  0.99950955     0.04900
C582        C  0.52194011  0.29821620  0.49255380     0.27300
C583        C  0.53616013  0.31883524  0.47440929    -0.13100
C584        C  0.53296436  0.33785517  0.47756904     0.05400
C585        C  0.51413660  0.33560674  0.49698190    -0.09100
C586        C  0.49956160  0.31463921  0.01478601     0.06200
C587        C  0.50403969  0.29641453  0.01339187    -0.13500
Br588      Br  0.56718614  0.30340929  0.02630082    -0.05600
Br589      Br  0.47886882  0.20936268  0.44906068     0.00100
Br590      Br  0.55507849  0.36706484  0.45581428     0.00500
Br591      Br  0.48510194  0.26837634  0.03912421    -0.03900
Br592      Br  0.57004064  0.25571617  0.01704030     0.00600
Br593      Br  0.48279573  0.26064972  0.44597863    -0.03200
Br594      Br  0.55908825  0.32038943  0.44381036    -0.04000
Br595      Br  0.47214511  0.30962529  0.03884568    -0.00100
C596        C  0.69084010  0.12561217  0.03975780     0.01300
C597        C  0.68552282  0.13861908  0.06148505     0.04200
C598        C  0.66965800  0.12723039  0.08756186    -0.11900
C599        C  0.65798035  0.10262107  0.09133385     0.23500
C600        C  0.66398059  0.08976654  0.07064577    -0.12500
C601        C  0.68064388  0.10124773  0.04532866     0.04900
C602        C  0.63650210  0.09007215  0.11277277     0.27300
C603        C  0.63794116  0.08412472  0.14506014    -0.13100
C604        C  0.61738461  0.07353086  0.16511220     0.05400
C605        C  0.59576929  0.07035657  0.15368912    -0.09100
C606        C  0.59440461  0.07592530  0.12114327     0.06200
C607        C  0.61437993  0.08491322  0.10058855    -0.13500
Br608      Br  0.64809626  0.05611560  0.07589349    -0.05600
Br609      Br  0.69762842  0.17152625  0.05386664     0.00100
Br610      Br  0.61829186  0.06185206  0.20721825     0.00500
Br611      Br  0.61155918  0.09034349  0.05535995    -0.03900
Br612      Br  0.68917873  0.08337389  0.01806492     0.00600
Br613      Br  0.66261013  0.14507033  0.11723575    -0.03200
Br614      Br  0.66806457  0.09072165  0.16167193    -0.04000
Br615      Br  0.56569285  0.07276161  0.10466209    -0.00100
C616        C  0.69414826  0.13235647  0.41934855     0.01300
C617        C  0.69635214  0.11705539  0.39807588     0.04200
C618        C  0.68081390  0.10686212  0.37121349    -0.11900
C619        C  0.66286604  0.11171499  0.36583328     0.23500
C620        C  0.66187988  0.12834244  0.38569980    -0.12500
C621        C  0.67741903  0.13858240  0.41234705     0.04900
C622        C  0.64351627  0.09793138  0.34156382     0.27300
C623        C  0.64438969  0.10740427  0.31098562    -0.13100
C624        C  0.62412788  0.09655098  0.29055286     0.05400
C625        C  0.60269979  0.07542062  0.30024049    -0.09100
C626        C  0.60276992  0.06508117  0.33028168     0.06200
C627        C  0.62296757  0.07647028  0.35074577    -0.13500
Br628      Br  0.63851696  0.13640895  0.37700826    -0.05600
Br629      Br  0.71984273  0.10923758  0.40666355     0.00100
Br630      Br  0.62652646  0.11178722  0.24985255     0.00500
Br631      Br  0.62221951  0.06341349  0.39271470    -0.03900
Br632      Br  0.67517838  0.16056166  0.44013356     0.00600
Br633      Br  0.68357134  0.08586037  0.34207528    -0.03200
Br634      Br  0.67344338  0.13594626  0.29786612    -0.04000
Br635      Br  0.57514265  0.03624551  0.34601076    -0.00100
C636        C  0.52356061  0.17116411  0.04449265     0.01300
C637        C  0.50279541  0.15806947  0.06348866     0.04200
C638        C  0.50193366  0.14295300  0.08761872    -0.11900
C639        C  0.52156211  0.14049176  0.09197299     0.23500
C640        C  0.54292695  0.15496163  0.07463058    -0.12500
C641        C  0.54405471  0.17068623  0.05146903     0.04900
C642        C  0.51956143  0.12194361  0.11338639     0.27300
C643        C  0.53115874  0.12815938  0.14353568    -0.13100
C644        C  0.53293960  0.11144957  0.16142955     0.05400
C645        C  0.52168490  0.08775697  0.15004617    -0.09100
C646        C  0.50829056  0.08123737  0.12080614     0.06200
C647        C  0.50776892  0.09844381  0.10228886    -0.13500
Br648      Br  0.57018824  0.15222008  0.08104095    -0.05600
Br649      Br  0.47514062  0.15973067  0.05512349     0.00100
Br650      Br  0.55298996  0.12259492  0.19968132     0.00500
Br651      Br  0.49161039  0.09005676  0.06085402    -0.03900
Br652      Br  0.57330920  0.19118319  0.52864144     0.00600
Br653      Br  0.47363555  0.12479155  0.11377588    -0.03200
Br654      Br  0.54540022  0.16010669  0.15950828    -0.04000
Br655      Br  0.49012496  0.04889287  0.10542586    -0.00100
C656        C  0.52523994  0.08608771  0.31970355     0.01300
C657        C  0.51427729  0.09760878  0.30632711     0.04200
C658        C  0.51095051  0.11309451  0.32557930    -0.11900
C659        C  0.51939837  0.11820587  0.35758420     0.23500
C660        C  0.53053286  0.10728290  0.37091354    -0.12500
C661        C  0.53361247  0.09145843  0.35222927     0.04900
C662        C  0.51722363  0.13549958  0.37750559     0.27300
C663        C  0.53600269  0.15943176  0.37803920    -0.13100
C664        C  0.53644266  0.17482451  0.40185446     0.05400
C665        C  0.51803053  0.16620186  0.42520890    -0.09100
C666        C  0.49802324  0.14284479  0.42236051     0.06200
C667        C  0.49767732  0.12754466  0.39860158    -0.13500
Br668      Br  0.54179257  0.11437691  0.41522120    -0.05600
Br669      Br  0.50392119  0.09343468  0.26163553     0.00100
Br670      Br  0.56322090  0.20706533  0.40379240     0.00500
Br671      Br  0.47106533  0.09525973  0.39590581    -0.03900
Br672      Br  0.55147377  0.07929478  0.37133972     0.00600
Br673      Br  0.49450706  0.12736366  0.30854736    -0.03200
Br674      Br  0.56180293  0.17062095  0.34725662    -0.04000
Br675      Br  0.47130616  0.13149248  0.45173026    -0.00100
C676        C  0.32299758  0.88040833  0.99979862     0.01300
C677        C  0.30079540  0.87160809  0.48427514     0.04200
C678        C  0.28193165  0.84811608  0.48924279    -0.11900
C679        C  0.28487106  0.83343976  0.01045114     0.23500
C680        C  0.30689817  0.84226248  0.02621289    -0.12500
C681        C  0.32612898  0.86536659  0.02009950     0.04900
C682        C  0.26516244  0.80847235  0.01479586     0.27300
C683        C  0.24557249  0.80267602  0.03500610    -0.13100
C684        C  0.22559621  0.77932589  0.03574374     0.05400
C685        C  0.22584101  0.76146617  0.01775270    -0.09100
C686        C  0.24686236  0.76702856  0.50127164     0.06200
C687        C  0.26585564  0.79058619  0.49819748    -0.13500
Br688      Br  0.31041263  0.82274809  0.05686011    -0.05600
Br689      Br  0.29547766  0.89158464  0.45718883     0.00100
Br690      Br  0.19798722  0.77216211  0.06095065     0.00500
Br691      Br  0.29247006  0.79829453  0.47021766    -0.03900
Br692      Br  0.35704367  0.87580497  0.03844622     0.00600
Br693      Br  0.25181366  0.83580111  0.46717931    -0.03200
Br694      Br  0.24623258  0.82684986  0.06142428    -0.04000
Br695      Br  0.25071852  0.74214936  0.48580957    -0.00100
C696        C  0.45211735  0.00094599  0.19247144     0.01300
C697        C  0.44814475  0.01740031  0.17730958     0.04200
C698        C  0.43046296  0.00955136  0.15315056    -0.11900
C699        C  0.41532372  0.98523357  0.14694067     0.23500
C700        C  0.41496801  0.96903366  0.16865675    -0.12500
C701        C  0.43350707  0.97680543  0.19129812     0.04900
C702        C  0.40401390  0.97648789  0.11477436     0.27300
C703        C  0.38226009  0.97429971  0.10670314    -0.13100
C704        C  0.37129454  0.96428565  0.07662120     0.05400
C705        C  0.38121574  0.95501296  0.05575056    -0.09100
C706        C  0.40200257  0.95573180  0.06514464     0.06200
C707        C  0.41424223  0.96783984  0.09332199    -0.13500
Br708      Br  0.39092243  0.93584272  0.16396781    -0.05600
Br709      Br  0.46590247  0.05021173  0.18979279     0.00100
Br710      Br  0.34216537  0.96218901  0.06458616     0.00500
Br711      Br  0.44479537  0.97181340  0.10300191    -0.03900
Br712      Br  0.43327351  0.95393236  0.21938096     0.00600
Br713      Br  0.42841435  0.03197739  0.12679058    -0.03200
Br714      Br  0.36694214  0.98373397  0.13749834    -0.04000
Br715      Br  0.41187169  0.93718933  0.04243195    -0.00100
C716        C  0.38429072  0.95112882  0.43491325     0.01300
C717        C  0.37150425  0.95092478  0.40733159     0.04200
C718        C  0.38302954  0.95855602  0.37700401    -0.11900
C719        C  0.40774220  0.96808213  0.37455098     0.23500
C720        C  0.42083794  0.96980049  0.40232124    -0.12500
C721        C  0.40919184  0.96090070  0.43206690     0.04900
C722        C  0.42030679  0.97454947  0.34283480     0.27300
C723        C  0.42626274  0.95925546  0.32896238    -0.13100
C724        C  0.44534729  0.96784979  0.30687762     0.05400
C725        C  0.45779368  0.99197782  0.29663518    -0.09100
C726        C  0.44868747  0.00594516  0.30689890     0.06200
C727        C  0.43047933  0.99741802  0.33053696    -0.13500
Br728      Br  0.45494876  0.98345813  0.39908799    -0.05600
Br729      Br  0.33858481  0.94151162  0.41109798     0.00100
Br730      Br  0.45435695  0.94573963  0.29411264     0.00500
Br731      Br  0.42007001  0.01732048  0.34754801    -0.03900
Br732      Br  0.42788553  0.96106222  0.46770173     0.00600
Br733      Br  0.36494020  0.95497320  0.33851797    -0.03200
Br734      Br  0.40920894  0.92673987  0.34303945    -0.04000
Br735      Br  0.46052295  0.03675049  0.28939036    -0.00100
C736        C  0.53601305  0.73787890  0.49192434     0.01300
C737        C  0.51294674  0.72974344  0.00270353     0.04200
C738        C  0.50461309  0.74509342  0.00368052    -0.11900
C739        C  0.51858777  0.76793378  0.49096664     0.23500
C740        C  0.54125795  0.77550494  0.47786482    -0.12500
C741        C  0.55044226  0.76099743  0.47987930     0.04900
C742        C  0.51103800  0.78500669  0.49308448     0.27300
C743        C  0.49466154  0.78421674  0.47063809    -0.13100
C744        C  0.49141735  0.80321881  0.46876735     0.05400
C745        C  0.50588627  0.82368228  0.98777465    -0.09100
C746        C  0.52133736  0.82383921  0.01143963     0.06200
C747        C  0.52329916  0.80419819  0.01488685    -0.13500
Br748      Br  0.55968222  0.80584039  0.45693043    -0.05600
Br749      Br  0.49167549  0.69703065  0.01407413     0.00100
Br750      Br  0.46736172  0.80122876  0.44027438     0.00500
Br751      Br  0.54396953  0.80413526  0.04781541    -0.03900
Br752      Br  0.58321308  0.77336320  0.46755466     0.00600
Br753      Br  0.47394570  0.73490867  0.02270646    -0.03200
Br754      Br  0.47797007  0.75795785  0.44096691    -0.04000
Br755      Br  0.54190521  0.85149490  0.03714579    -0.00100
C756        C  0.49795334  0.88942360  0.02776627     0.01300
C757        C  0.51678065  0.90163752  0.05013388     0.04200
C758        C  0.51469302  0.91413183  0.07578236    -0.11900
C759        C  0.49530574  0.91716539  0.07663060     0.23500
C760        C  0.47680527  0.90576450  0.05359946    -0.12500
C761        C  0.47777227  0.89125277  0.02968461     0.04900
C762        C  0.49691896  0.93549171  0.09832206     0.27300
C763        C  0.48947313  0.93025107  0.13073786    -0.13100
C764        C  0.49518642  0.94865259  0.15269551     0.05400
C765        C  0.50843778  0.97237889  0.14209528    -0.09100
C766        C  0.51444550  0.97732170  0.10907358     0.06200
C767        C  0.50894549  0.95891795  0.08732280    -0.13500
Br768      Br  0.45116355  0.91134344  0.05372090    -0.05600
Br769      Br  0.54710925  0.90490264  0.04267160     0.00100
Br770      Br  0.48412687  0.94096080  0.19696757     0.00500
Br771      Br  0.51930162  0.96582905  0.04270544    -0.03900
Br772      Br  0.45233185  0.87509779  0.99840072     0.00600
Br773      Br  0.53919582  0.92838664  0.10873929    -0.03200
Br774      Br  0.47240967  0.89790774  0.14505000    -0.04000
Br775      Br  0.53153465  0.00929012  0.09365462    -0.00100
C776        C  0.53387260  0.97850247  0.31098846     0.01300
C777        C  0.54529491  0.96686371  0.29954612     0.04200
C778        C  0.54478701  0.94917971  0.31823164    -0.11900
C779        C  0.53408688  0.94379142  0.34893756     0.23500
C780        C  0.52514853  0.95696458  0.36199869    -0.12500
C781        C  0.52441519  0.97383831  0.34300943     0.04900
C782        C  0.53082652  0.92345707  0.36728405     0.27300
C783        C  0.50803332  0.90246954  0.36808918    -0.13100
C784        C  0.50284900  0.88549313  0.39179327     0.05400
C785        C  0.52059861  0.88934126  0.41411909    -0.09100
C786        C  0.54415587  0.90881858  0.41055753     0.06200
C787        C  0.54925224  0.92609350  0.38734010    -0.13500
Br788      Br  0.51341088  0.95130504  0.40614795    -0.05600
Br789      Br  0.56240150  0.97489758  0.25875868     0.00100
Br790      Br  0.47088628  0.85816048  0.39597107     0.00500
Br791      Br  0.58072872  0.95435646  0.38511227    -0.03900
Br792      Br  0.50899929  0.98891380  0.36158305     0.00600
Br793      Br  0.55832856  0.93181783  0.30173488    -0.03200
Br794      Br  0.48339048  0.89812909  0.33865603    -0.04000
Br795      Br  0.56878252  0.91273743  0.43956059    -0.00100
C796        C  0.50555104  0.84524855  0.48143189     0.03100
C797        C  0.51285368  0.85629638  0.95104211    -0.13000
C798        C  0.51345153  0.87715346  0.94551326     0.00600
C799        C  0.50745223  0.88726264  0.97043238    -0.11500
C800        C  0.50062902  0.87668503  0.50066577     0.03100
C801        C  0.49920428  0.85541589  0.50607909    -0.11000
H802        H  0.51811719  0.84883886  0.93194110     0.08700
H803        H  0.50874152  0.90387726  0.96646100     0.06300
H804        H  0.49404729  0.84731355  0.52967779     0.06100
C805        C  0.34226176  0.90595002  0.49744723     0.03100
C806        C  0.35032637  0.91963040  0.52586023    -0.13000
C807        C  0.36938252  0.94312122  0.52501076     0.00600
C808        C  0.37925976  0.95365543  0.99520279    -0.11500
C809        C  0.37165389  0.94037835  0.96625980     0.03100
C810        C  0.35324405  0.91629454  0.96769894    -0.11000
H811        H  0.34257676  0.91157882  0.54907528     0.08700
H812        H  0.39387032  0.97197914  0.99474227     0.06300
H813        H  0.34779454  0.90561561  0.94583614     0.06100
O814        O  0.52493545  0.00818244  0.79959258    -0.80100
O815        O  0.55581341  0.04243520  0.67052934    -0.80100
O816        O  0.52459046  0.99119503  0.69247564    -0.80200
O817        O  0.57697594  0.07820774  0.76219469    -0.80100
O818        O  0.51130202  0.00745524  0.66110996    -0.80200
O819        O  0.56266605  0.04492303  0.78439371    -0.80100
O820        O  0.57491231  0.07516019  0.69751595    -0.80100
O821        O  0.53043526  0.99067099  0.75848176    -0.80200
C822        C  0.53014174  0.99360678  0.78877932     1.09600
C823        C  0.57471416  0.06193141  0.67546347     1.09400
C824        C  0.51575755  0.99159249  0.66575633     1.09600
C825        C  0.57993757  0.06551947  0.78100671     1.09500
O826        O  0.53015244  0.05304198  0.81309126    -0.80100
O827        O  0.49361260  0.02912944  0.70368068    -0.80200
O828        O  0.48748822  0.98906383  0.76833537    -0.80100
O829        O  0.52875693  0.07250336  0.69860656    -0.80100
O830        O  0.52343080  0.05302022  0.65296713    -0.80200
O831        O  0.49454573  0.02411902  0.77236075    -0.80100
O832        O  0.53028375  0.07138967  0.76841297    -0.80100
O833        O  0.48159303  0.99202229  0.70510965    -0.80200
Co834      Co  0.52957360  0.03632116  0.77551740     1.51500
Co835      Co  0.52557104  0.03682781  0.68856033     1.51700
Co836      Co  0.50815320  0.99340292  0.73077886     1.51600
Co837      Co  0.55012416  0.06884349  0.73146073     1.51500
O838        O  0.53251418  0.02963335  0.73092577    -1.42100
C839        C  0.52911424  0.06954674  0.79973534     1.09500
C840        C  0.47671288  0.00780127  0.70233217     1.09600
C841        C  0.48060726  0.00230231  0.77753443     1.09500
C842        C  0.52510255  0.07040170  0.66769698     1.09500
C843        C  0.52341348  0.21311552  0.48386624     0.03100
C844        C  0.52245956  0.20166144  0.95446542    -0.13000
C845        C  0.52112125  0.18007499  0.95500836     0.00600
C846        C  0.52200139  0.17078024  0.98480376    -0.11500
C847        C  0.52259225  0.18177966  0.51407429     0.03100
C848        C  0.52299024  0.20277218  0.51354355    -0.11000
H849        H  0.52228268  0.20920169  0.93158403     0.08700
H850        H  0.52162268  0.15444947  0.98538098     0.06300
H851        H  0.52329285  0.21127129  0.53637528     0.06100
C852        C  0.74104555  0.16939312  0.48357926     0.03100
C853        C  0.72845712  0.15728092  0.51174609    -0.13000
C854        C  0.70528412  0.13695374  0.50986613     0.00600
C855        C  0.69486526  0.12858297  0.47920742    -0.11500
C856        C  0.70722250  0.14000184  0.95076468     0.03100
C857        C  0.73047325  0.16017172  0.95300673    -0.11000
H858        H  0.73629796  0.16429120  0.53532743     0.08700
H859        H  0.67657546  0.11359658  0.47748174     0.06300
H860        H  0.73979555  0.16933418  0.93110508     0.06100
O861        O  0.06862064  0.58023270  0.80304285    -0.80100
O862        O  0.02901256  0.55583516  0.73089686    -0.80100
O863        O  0.08101875  0.57460195  0.73423115    -0.80200
O864        O  0.99206482  0.51836449  0.80499261    -0.80100
O865        O  0.06174332  0.55707130  0.68928576    -0.80200
O866        O  0.02073033  0.55543810  0.80814030    -0.80100
O867        O  0.99627959  0.52078625  0.73858736    -0.80100
O868        O  0.09629907  0.57295644  0.79516987    -0.80200
C869        C  0.09016171  0.58668445  0.80570597     1.09600
C870        C  0.00664768  0.54183473  0.72782029     1.09400
C871        C  0.07749286  0.57567989  0.70362988     1.09600
C872        C  0.99959639  0.53933987  0.81421130     1.09500
O873        O  0.02209164  0.51826984  0.84305933    -0.80100
O874        O  0.06799563  0.52581326  0.72126336    -0.80200
O875        O  0.07403367  0.52338254  0.79471345    -0.80100
O876        O  0.01595426  0.49012580  0.74238610    -0.80100
O877        O  0.02359685  0.51408172  0.70315563    -0.80200
O878        O  0.06960681  0.54198571  0.83593942    -0.80100
O879        O  0.01353475  0.49094875  0.80628527    -0.80100
O880        O  0.10312781  0.55039548  0.74377646    -0.80200
Co881      Co  0.04512529  0.54876982  0.81987814     1.51500
Co882      Co  0.04868031  0.54186024  0.72901691     1.51700
Co883      Co  0.07530790  0.54659325  0.76393647     1.51600
Co884      Co  0.00656561  0.50642808  0.77287699     1.51500
O885        O  0.04106526  0.53407802  0.77586699    -1.42100
C886        C  0.01507394  0.49706971  0.83544106     1.09500
C887        C  0.09062484  0.53421921  0.72330269     1.09600
C888        C  0.07579392  0.52821777  0.82489233     1.09500
C889        C  0.01448921  0.49318830  0.71287072     1.09500
C890        C  0.18134273  0.47363141  0.51424250     0.03100
C891        C  0.16780925  0.47224940  0.98709279    -0.13000
C892        C  0.15029511  0.47778940  0.99026518     0.00600
C893        C  0.14397770  0.48155379  0.52098203    -0.11500
C894        C  0.15605326  0.48134860  0.54855519     0.03100
C895        C  0.17531660  0.47833652  0.54496293    -0.11000
H896        H  0.17183085  0.46845969  0.96332642     0.08700
H897        H  0.13031953  0.48569535  0.52333165     0.06300
H898        H  0.18582058  0.48008613  0.56606582     0.06100
C899        C  0.89189042  0.33143015  0.51608226     0.03100
C900        C  0.90366568  0.34438775  0.98808428    -0.13000
C901        C  0.92297252  0.36780225  0.99047294     0.00600
C902        C  0.92934984  0.37886695  0.52076709    -0.11500
C903        C  0.91844301  0.36640818  0.54900077     0.03100
C904        C  0.90011433  0.34241575  0.54680522    -0.11000
H905        H  0.89795721  0.33621985  0.96439589     0.08700
H906        H  0.94369538  0.39733528  0.52252602     0.06300
H907        H  0.89188395  0.33259248  0.56877534     0.06100
C908        C  0.88200841  0.55999296  0.52830991     0.03100
C909        C  0.89267554  0.55944326  0.99923267    -0.13000
C910        C  0.91389245  0.55970846  0.99931465     0.00600
C911        C  0.92558914  0.56230499  0.52866729    -0.11500
C912        C  0.91633623  0.56490364  0.55801716     0.03100
C913        C  0.89430657  0.56337151  0.55762852    -0.11000
H914        H  0.88364306  0.55736768  0.97623539     0.08700
H915        H  0.94190349  0.56224032  0.52871942     0.06300
H916        H  0.88651906  0.56429614  0.58020750     0.06100
C917        C  0.20414090  0.73740459  0.51488760     0.03100
C918        C  0.19292320  0.72890806  0.98444462    -0.13000
C919        C  0.17378187  0.70534661  0.98053491     0.00600
C920        C  0.16542786  0.69079823  0.50786041    -0.11500
C921        C  0.17527244  0.69944262  0.53857779     0.03100
C922        C  0.19504214  0.72256608  0.54194263    -0.11000
H923        H  0.19940672  0.74059516  0.96385489     0.08700
H924        H  0.15067302  0.67253147  0.50539484     0.06300
H925        H  0.20317562  0.72899744  0.56551696     0.06100
O926        O  0.54379060  0.52537864  0.68070497    -0.80100
O927        O  0.52610741  0.54737103  0.81772726    -0.80100
O928        O  0.55180082  0.49936894  0.76598104    -0.80200
O929        O  0.49629366  0.52998401  0.71627142    -0.80100
O930        O  0.53439585  0.51287675  0.79714986    -0.80200
O931        O  0.52207514  0.54890044  0.67734166    -0.80100
O932        O  0.50007886  0.52866983  0.78041153    -0.80100
O933        O  0.52360097  0.50328057  0.72196879    -0.80200
C934        C  0.52847311  0.50513804  0.69201067     1.09600
C935        C  0.50446813  0.53500050  0.80942477     1.09400
C936        C  0.53923306  0.49686950  0.79054880     1.09600
C937        C  0.50088815  0.53400448  0.68658105     1.09500
O938        O  0.56236812  0.59011829  0.70719031    -0.80100
O939        O  0.56890209  0.55219338  0.82641571    -0.80200
O940        O  0.57482942  0.53036436  0.71780450    -0.80100
O941        O  0.53229603  0.58093390  0.78172374    -0.80100
O942        O  0.56733835  0.58457736  0.78832893    -0.80200
O943        O  0.58585804  0.56671720  0.71021283    -0.80100
O944        O  0.52580518  0.58034220  0.71583169    -0.80100
O945        O  0.58107813  0.54532230  0.78021029    -0.80200
Co946      Co  0.55358384  0.55791220  0.69685805     1.51500
Co947      Co  0.55199120  0.54980587  0.78897524     1.51700
Co948      Co  0.55027576  0.52483987  0.75126214     1.51600
Co949      Co  0.51484778  0.55427220  0.74862462     1.51500
O950        O  0.54185709  0.54882708  0.74294197    -1.42100
C951        C  0.54628905  0.59453469  0.70376895     1.09500
C952        C  0.58397331  0.54981571  0.81105460     1.09600
C953        C  0.58960708  0.55039302  0.70603804     1.09500
C954        C  0.55389364  0.59260837  0.79202562     1.09500
C955        C  0.50886737  0.35463592  0.99772486     0.03100
C956        C  0.50818288  0.36485748  0.52729237    -0.13000
C957        C  0.50350888  0.38293743  0.52776911     0.00600
C958        C  0.49964174  0.39075886  0.99840513    -0.11500
C959        C  0.50206976  0.38200737  0.96869130     0.03100
C960        C  0.50556254  0.36321407  0.96852526    -0.11000
H961        H  0.51160529  0.35904129  0.54985281     0.08700
H962        H  0.49697033  0.40532097  0.99855402     0.06300
H963        H  0.50704730  0.35612349  0.94559587     0.06100
C964        C  0.33870325  0.48430702  0.99860479     0.03100
C965        C  0.34911443  0.48215122  0.52701540    -0.13000
C966        C  0.37222162  0.48635502  0.52564201     0.00600
C967        C  0.38460775  0.49236496  0.99618027    -0.11500
C968        C  0.37406029  0.49380461  0.96791934     0.03100
C969        C  0.35108417  0.48990950  0.96897277    -0.11000
H970        H  0.33975484  0.47799786  0.54987063     0.08700
H971        H  0.40270879  0.49609732  0.99529339     0.06300
H972        H  0.34304489  0.49147834  0.94712382     0.06100
C973        C  0.72649627  0.55181109  0.00256206     0.03100
C974        C  0.71490906  0.55202756  0.53047520    -0.13000
C975        C  0.69441161  0.55299197  0.52844445     0.00600
C976        C  0.68560451  0.55401889  0.99822454    -0.11500
C977        C  0.69738111  0.55430392  0.96979705     0.03100
C978        C  0.71767099  0.55282282  0.97201858    -0.11000
H979        H  0.72186445  0.55169805  0.55405521     0.08700
H980        H  0.66974503  0.55474700  0.99671197     0.06300
H981        H  0.72682087  0.55286792  0.95011021     0.06100
C982        C  0.54548026  0.72216279  0.99142802     0.03100
C983        C  0.55060654  0.71575945  0.96154817    -0.13000
C984        C  0.55846851  0.70021230  0.96033538     0.00600
C985        C  0.56139640  0.69109793  0.98902944    -0.11500
C986        C  0.55462654  0.69613017  0.51913305     0.03100
C987        C  0.54724553  0.71220460  0.52026653    -0.11000
H988        H  0.54775794  0.72229829  0.93916788     0.08700
H989        H  0.56685584  0.67851120  0.98784060     0.06300
H990        H  0.54252274  0.71652637  0.54331112     0.06100
C991        C  0.48462434  0.53001179  0.83156925     0.01300
C992        C  0.48495788  0.52474617  0.86460302     0.04200
C993        C  0.46572594  0.51983795  0.88492140    -0.11900
C994        C  0.44561043  0.51893050  0.87202856     0.23500
C995        C  0.44510267  0.52405244  0.83927803    -0.12500
C996        C  0.46485883  0.53045702  0.81934577     0.04900
C997        C  0.42491340  0.51251997  0.89303162     0.27300
C998        C  0.40719540  0.48858879  0.89791826    -0.13100
C999        C  0.38890122  0.48238527  0.92055304     0.05400
C1000       C  0.38824534  0.50012397  0.93802691    -0.09100
C1001       C  0.40519728  0.52407266  0.93179651     0.06200
C1002       C  0.42352182  0.53029052  0.90920443    -0.13500
Br1003     Br  0.41706606  0.52208751  0.82185678    -0.05600
Br1004     Br  0.51085631  0.52291966  0.88210206     0.00100
Br1005     Br  0.36590719  0.44962376  0.92979257     0.00500
Br1006     Br  0.44760746  0.56304941  0.90183051    -0.03900
Br1007     Br  0.46498941  0.54154237  0.77612660     0.00600
Br1008     Br  0.46672023  0.51431237  0.93058797    -0.03200
Br1009     Br  0.40889191  0.46440248  0.87489760    -0.04000
Br1010     Br  0.40446190  0.54821100  0.95646377    -0.00100
C1011       C  0.48097552  0.52253115  0.66282811     0.01300
C1012       C  0.48234327  0.53406080  0.63345573     0.04200
C1013       C  0.46272523  0.52407892  0.61233941    -0.11900
C1014       C  0.44131736  0.50315634  0.62084126     0.23500
C1015       C  0.43988773  0.49122887  0.64935504    -0.12500
C1016       C  0.45973876  0.50057259  0.67011029     0.04900
C1017       C  0.41983947  0.49518241  0.60096735     0.27300
C1018       C  0.40892063  0.50827360  0.60205429    -0.13100
C1019       C  0.39250149  0.50487430  0.57800567     0.05400
C1020       C  0.38511445  0.48669093  0.55484661    -0.09100
C1021       C  0.39403993  0.47176663  0.55623857     0.06200
C1022       C  0.41213428  0.47662169  0.57846001    -0.13500
Br1023     Br  0.41021153  0.46254797  0.66049258    -0.05600
Br1024     Br  0.50995089  0.56447686  0.62221865     0.00100
Br1025     Br  0.38339501  0.52759926  0.57415458     0.00500
Br1026     Br  0.42781981  0.45934497  0.57618167    -0.03900
Br1027     Br  0.45707027  0.48257469  0.70811950     0.00600
Br1028     Br  0.46461409  0.53972514  0.57214732    -0.03200
Br1029     Br  0.41823157  0.53240060  0.63487671    -0.04000
Br1030     Br  0.38253354  0.44560360  0.52630768    -0.00100
C1031       C  0.56183325  0.61399830  0.81259482     0.01300
C1032       C  0.56593219  0.61346987  0.84619023     0.04200
C1033       C  0.56836216  0.63128890  0.86706198    -0.11900
C1034       C  0.56678523  0.64981911  0.85470623     0.23500
C1035       C  0.56473887  0.65165036  0.82121360    -0.12500
C1036       C  0.56213443  0.63375729  0.80025610     0.04900
C1037       C  0.56461946  0.66566508  0.87752456     0.27300
C1038       C  0.54182799  0.65881758  0.88939963    -0.13100
C1039       C  0.53973971  0.67128051  0.91525621     0.05400
C1040       C  0.56043936  0.69060533  0.92918048    -0.09100
C1041       C  0.58304573  0.69862291  0.91564252     0.06200
C1042       C  0.58517210  0.68603790  0.88986565    -0.13500
Br1043     Br  0.56477333  0.67845579  0.80455990    -0.05600
Br1044     Br  0.56636254  0.58771703  0.86513886     0.00100
Br1045     Br  0.50862451  0.66103818  0.93289778     0.00500
Br1046     Br  0.61617453  0.69573369  0.87264217    -0.03900
Br1047     Br  0.55923283  0.63691239  0.75485519     0.00600
Br1048     Br  0.57251020  0.62981099  0.91319976    -0.03200
Br1049     Br  0.51358619  0.63139814  0.87158473    -0.04000
Br1050     Br  0.61095989  0.72643399  0.93310641    -0.00100
C1051       C  0.55034428  0.61417893  0.68180267     0.01300
C1052       C  0.53218305  0.61912067  0.67654688     0.04200
C1053       C  0.53506404  0.63508881  0.65223907    -0.11900
C1054       C  0.55445298  0.64420887  0.63064014     0.23500
C1055       C  0.57267797  0.63988947  0.63601778    -0.12500
C1056       C  0.57169897  0.62680306  0.66310908     0.04900
C1057       C  0.55515591  0.65781005  0.60189376     0.27300
C1058       C  0.53949686  0.64589606  0.57575441    -0.13100
C1059       C  0.53831223  0.65864420  0.54986855     0.05400
C1060       C  0.55424014  0.68332532  0.54845751    -0.09100
C1061       C  0.57046730  0.69526570  0.57409690     0.06200
C1062       C  0.57051928  0.68258944  0.60114477    -0.13500
Br1063     Br  0.59839787  0.65076084  0.60508102    -0.05600
Br1064     Br  0.50303912  0.60475685  0.70179869     0.00100
Br1065     Br  0.51387672  0.64220875  0.51722389     0.00500
Br1066     Br  0.59150421  0.69911352  0.63724662    -0.03900
Br1067     Br  0.60077871  0.62837233  0.67476500     0.00600
Br1068     Br  0.51230784  0.64453394  0.64791378    -0.03200
Br1069     Br  0.51999830  0.61196711  0.57480433    -0.04000
Br1070     Br  0.59312638  0.72881808  0.57168475    -0.00100
C1071       C  0.60394282  0.55117584  0.82900833     0.01300
C1072       C  0.62762527  0.56409936  0.81719995     0.04200
C1073       C  0.64615170  0.56506825  0.83527751    -0.11900
C1074       C  0.64114055  0.55368004  0.86543161     0.23500
C1075       C  0.61749229  0.54042941  0.87691480    -0.12500
C1076       C  0.59896046  0.53904096  0.85872829     0.04900
C1077       C  0.66059475  0.55680503  0.88670239     0.27300
C1078       C  0.66559691  0.53895526  0.88856320    -0.13100
C1079       C  0.67885813  0.53855395  0.91486262     0.05400
C1080       C  0.68819303  0.55680683  0.93835752    -0.09100
C1081       C  0.68569249  0.57622776  0.93389076     0.06200
C1082       C  0.67137554  0.57589229  0.90865438    -0.09900
Br1083     Br  0.61056283  0.52447454  0.91811384    -0.05600
Br1084     Br  0.63516401  0.58207956  0.77788402     0.00100
Br1085     Br  0.68187301  0.51175568  0.92017178     0.00500
Br1086     Br  0.66495297  0.60065939  0.90557148    -0.03900
Br1087     Br  0.56662302  0.51991600  0.87470633     0.00600
Br1088     Br  0.67849348  0.58214713  0.81925092    -0.03200
Br1089     Br  0.65291235  0.51441162  0.85597474    -0.04000
Br1090     Br  0.70154562  0.60286552  0.46288576    -0.00100
C1091       C  0.68170397  0.55304730  0.55782694     0.01300
C1092       C  0.69168444  0.57325007  0.57793330     0.04200
C1093       C  0.67829845  0.57401763  0.60391861    -0.11900
C1094       C  0.65497586  0.55465745  0.60965477     0.23500
C1095       C  0.64510705  0.53444372  0.58971004    -0.12500
C1096       C  0.65853861  0.53353283  0.56405537     0.04900
C1097       C  0.64013996  0.55573475  0.63559904     0.27300
C1098       C  0.63874932  0.54584018  0.66609348    -0.13100
C1099       C  0.62238057  0.54419579  0.68942084     0.05400
C1100       C  0.60790464  0.55322411  0.68262647    -0.09100
C1101       C  0.60925385  0.56295542  0.65171313     0.06200
C1102       C  0.62549552  0.56436930  0.62846609    -0.13500
Br1103     Br  0.61269766  0.50842886  0.59671462    -0.05600
Br1104     Br  0.72306910  0.60033219  0.56879393     0.00100
Br1105     Br  0.61922225  0.52858732  0.72992770     0.00500
Br1106     Br  0.62682521  0.57688111  0.58590902    -0.03900
Br1107     Br  0.64513155  0.50551999  0.53728418     0.00600
Br1108     Br  0.69132331  0.60186211  0.63085014    -0.03200
Br1109     Br  0.65882614  0.53383734  0.67521664    -0.04000
Br1110     Br  0.58684542  0.57150257  0.63889440    -0.00100
C1111       C  0.53019110  0.47567792  0.81131555     0.01300
C1112       C  0.50750496  0.46499566  0.82637318     0.04200
C1113       C  0.50049350  0.44695207  0.84925231    -0.11900
C1114       C  0.51542488  0.43852322  0.85586360     0.23500
C1115       C  0.53680640  0.44730921  0.83840439    -0.12500
C1116       C  0.54462731  0.46628950  0.81701701     0.04900
C1117       C  0.51086115  0.42332586  0.88440683     0.27300
C1118       C  0.52418694  0.43385916  0.91278537    -0.13100
C1119       C  0.52288868  0.41990221  0.93861030     0.05400
C1120       C  0.50524203  0.39553396  0.93876139    -0.09100
C1121       C  0.49099786  0.38490992  0.91081639     0.06200
C1122       C  0.49474392  0.39867549  0.88305343    -0.13500
Br1123     Br  0.55586322  0.43377446  0.84521224    -0.05600
Br1124     Br  0.48533195  0.47406093  0.81498364     0.00100
Br1125     Br  0.54701500  0.43426045  0.97223749     0.00500
Br1126     Br  0.47829815  0.38394439  0.84311228    -0.03900
Br1127     Br  0.57625022  0.48033562  0.79848357     0.00600
Br1128     Br  0.47087509  0.43438194  0.87266709    -0.03200
Br1129     Br  0.54390462  0.46762476  0.91696312    -0.04000
Br1130     Br  0.46593335  0.35194948  0.91067017    -0.00100
C1131       C  0.50484607  0.39581275  0.55803217     0.01300
C1132       C  0.48524694  0.39755355  0.56706130     0.04200
C1133       C  0.48795532  0.41376643  0.59112082    -0.11900
C1134       C  0.51001865  0.42786848  0.60706744     0.23500
C1135       C  0.52903025  0.42481322  0.60008952    -0.12500
C1136       C  0.52668255  0.40922519  0.57513964     0.04900
C1137       C  0.51357861  0.44712634  0.62914132     0.27300
C1138       C  0.51851917  0.46853765  0.61595531    -0.13100
C1139       C  0.52070528  0.48651115  0.63631308     0.05400
C1140       C  0.51932990  0.48382313  0.67053680    -0.09100
C1141       C  0.51240662  0.46141073  0.68336598     0.06200
C1142       C  0.51010069  0.44343399  0.66271736    -0.13500
Br1143     Br  0.55856271  0.44269688  0.62399571    -0.05600
Br1144     Br  0.45469091  0.37810412  0.54592626     0.00100
Br1145     Br  0.52353571  0.51380939  0.61625248     0.00500
Br1146     Br  0.50262976  0.41365128  0.68027455    -0.03900
Br1147     Br  0.55426956  0.40829068  0.56254328     0.00600
Br1148     Br  0.46175573  0.41757457  0.60139017    -0.03200
Br1149     Br  0.52269289  0.47329507  0.56963952    -0.04000
Br1150     Br  0.50490752  0.45403367  0.72865757    -0.00100
C1151       C  0.74827171  0.55088416  0.00541542     0.01300
C1152       C  0.77028409  0.56944095  0.99316599     0.04200
C1153       C  0.79102917  0.56884468  0.99666343    -0.11900
C1154       C  0.79024462  0.55037966  0.51464303     0.23500
C1155       C  0.76838318  0.53210575  0.52756906    -0.12500
C1156       C  0.74721061  0.53155791  0.52155319     0.04900
C1157       C  0.81277503  0.55127548  0.52087753     0.27300
C1158       C  0.81739390  0.53586478  0.00523404    -0.13100
C1159       C  0.83912203  0.53734464  0.01031293     0.05400
C1160       C  0.85771388  0.55628290  0.52771185    -0.09100
C1161       C  0.85320162  0.57242945  0.54310987     0.06200
C1162       C  0.83032957  0.56896299  0.54131611    -0.13500
Br1163     Br  0.76758168  0.50834274  0.55457441    -0.05600
Br1164     Br  0.77266708  0.59675509  0.97394271     0.00100
Br1165     Br  0.84228956  0.51194901  0.99451992     0.00500
Br1166     Br  0.82302183  0.58872179  0.56643194    -0.03900
Br1167     Br  0.71694389  0.50471303  0.53546054     0.00600
Br1168     Br  0.82043783  0.59276516  0.97637162    -0.03200
Br1169     Br  0.79422493  0.51280870  0.97513773    -0.04000
Br1170     Br  0.87850307  0.60064890  0.56406782    -0.00100
C1171       C  0.31494902  0.48118325  0.00046888     0.01300
C1172       C  0.31254538  0.49937367  0.51299672     0.04200
C1173       C  0.28988531  0.49617151  0.51602700    -0.11900
C1174       C  0.26939053  0.47490527  0.50550881     0.23500
C1175       C  0.27183873  0.45681050  0.99238065    -0.12500
C1176       C  0.29449390  0.45977400  0.99043113     0.04900
C1177       C  0.24585220  0.47259526  0.50608735     0.27300
C1178       C  0.22901969  0.45941862  0.53037341    -0.13100
C1179       C  0.20716070  0.45824244  0.53149239     0.05400
C1180       C  0.20300947  0.47222997  0.51027494    -0.09100
C1181       C  0.22054377  0.48592222  0.98604869     0.06200
C1182       C  0.24114282  0.48497842  0.98295990    -0.13500
Br1183     Br  0.24400375  0.42809176  0.97669532    -0.05600
Br1184     Br  0.34067146  0.52945232  0.52393004     0.00100
Br1185     Br  0.18286558  0.43658218  0.56144509     0.00500
Br1186     Br  0.26335343  0.50115386  0.94781299    -0.03900
Br1187     Br  0.29765935  0.43460680  0.97399490     0.00600
Br1188     Br  0.28689983  0.52109541  0.53414253    -0.03200
Br1189     Br  0.23643200  0.44373348  0.56285372    -0.04000
Br1190     Br  0.21826338  0.50807092  0.95908872    -0.00100
C1191       C  0.99317729  0.54893416  0.70738796     0.01300
C1192       C  0.98146659  0.53567437  0.67918145     0.04200
C1193       C  0.97102741  0.54349707  0.65747112    -0.11900
C1194       C  0.97015588  0.56349513  0.66489232     0.23500
C1195       C  0.98142620  0.57672035  0.69322045    -0.12500
C1196       C  0.99346272  0.56977731  0.71403897     0.04900
C1197       C  0.95590129  0.56893698  0.64316084     0.27300
C1198       C  0.96721494  0.58582080  0.61851375    -0.13100
C1199       C  0.95375483  0.58590809  0.59219638     0.05400
C1200       C  0.92925783  0.56789466  0.58904264    -0.09100
C1201       C  0.91781502  0.55170548  0.61469089     0.06200
C1202       C  0.93091041  0.55312869  0.64233258    -0.13500
Br1203     Br  0.98015966  0.60407268  0.70346431    -0.05600
Br1204     Br  0.97945116  0.50667951  0.66897094     0.00100
Br1205     Br  0.96919092  0.61054363  0.56024827     0.00500
Br1206     Br  0.91522925  0.53144997  0.67776203    -0.03900
Br1207     Br  0.00937636  0.58819993  0.75232433     0.00600
Br1208     Br  0.95805956  0.52682307  0.61679075    -0.03200
Br1209     Br  0.00146681  0.60733808  0.61927400    -0.04000
Br1210     Br  0.88522485  0.52526922  0.61059577    -0.00100
C1211       C  0.98527445  0.54411759  0.83700712     0.01300
C1212       C  0.99594379  0.55722143  0.86589462     0.04200
C1213       C  0.98167439  0.55840982  0.89014817    -0.11900
C1214       C  0.95681025  0.54680234  0.88587886     0.23500
C1215       C  0.94623175  0.53455605  0.85674290    -0.12500
C1216       C  0.96050046  0.53355725  0.83211704     0.04900
C1217       C  0.94228704  0.54810845  0.91231667     0.27300
C1218       C  0.93302525  0.53110746  0.93707485    -0.13100
C1219       C  0.92278339  0.53445152  0.96487154     0.05400
C1220       C  0.92288604  0.55539977  0.96879467    -0.09100
C1221       C  0.93151514  0.57207299  0.94357178     0.06200
C1222       C  0.94073381  0.56816342  0.91511898    -0.13500
Br1223     Br  0.91215919  0.51870703  0.85106821    -0.05600
Br1224     Br  0.02986648  0.57252522  0.87419752     0.00100
Br1225     Br  0.90793484  0.50975073  0.49698433     0.00500
Br1226     Br  0.95236622  0.59077171  0.88040520    -0.03900
Br1227     Br  0.94640048  0.51892761  0.79095821     0.00600
Br1228     Br  0.99601215  0.57519316  0.93025173    -0.03200
Br1229     Br  0.93553729  0.50386929  0.93366299    -0.04000
Br1230     Br  0.93220807  0.60100226  0.94877942    -0.00100
C1231       C  0.00006716  0.47246920  0.69132408     0.01300
C1232       C  0.97717181  0.45392146  0.70160555     0.04200
C1233       C  0.96317378  0.43424435  0.68137729    -0.11900
C1234       C  0.97125585  0.43344472  0.65012906     0.23500
C1235       C  0.99391504  0.45196901  0.63961869    -0.12500
C1236       C  0.00844854  0.47128744  0.66031189     0.04900
C1237       C  0.95512857  0.41406317  0.62742937     0.27300
C1238       C  0.95689301  0.39418054  0.62347155    -0.13100
C1239       C  0.94319023  0.37711246  0.59949975     0.05400
C1240       C  0.92721351  0.37958530  0.58005552    -0.09100
C1241       C  0.92412264  0.39852436  0.58593631     0.06200
C1242       C  0.93828420  0.41589050  0.60917712    -0.13500
Br1243     Br  0.00471825  0.45102661  0.59647756    -0.05600
Br1244     Br  0.96353553  0.45621735  0.74194690     0.00100
Br1245     Br  0.94776466  0.35147660  0.59147004     0.00500
Br1246     Br  0.93565777  0.44298809  0.61475943    -0.03900
Br1247     Br  0.03994991  0.49583663  0.64629147     0.00600
Br1248     Br  0.93253953  0.40841496  0.69605113    -0.03200
Br1249     Br  0.97885209  0.39099867  0.65004230    -0.04000
Br1250     Br  0.90125356  0.40126925  0.56074112    -0.00100
C1251       C  0.93765929  0.38121504  0.96216608     0.01300
C1252       C  0.96273402  0.39189663  0.96390569     0.04200
C1253       C  0.97772179  0.41018642  0.94269955    -0.11900
C1254       C  0.96765926  0.41622245  0.91772446     0.23500
C1255       C  0.94271620  0.40319339  0.91295707    -0.12500
C1256       C  0.92761503  0.38638992  0.93595431     0.04900
C1257       C  0.98268100  0.43815547  0.89935882     0.27300
C1258       C  0.98113819  0.45782648  0.90656845    -0.13100
C1259       C  0.99217898  0.47753943  0.88626071     0.05400
C1260       C  0.00640849  0.47836745  0.86005917    -0.09100
C1261       C  0.01015173  0.45964813  0.85534546     0.06200
C1262       C  0.99745813  0.43916130  0.87407544    -0.13500
Br1263     Br  0.92939493  0.40998427  0.87624764    -0.05600
Br1264     Br  0.97674015  0.38219507  0.49624661     0.00100
Br1265     Br  0.98565023  0.50199474  0.89327772     0.00500
Br1266     Br  0.99921571  0.41200810  0.86396791    -0.03900
Br1267     Br  0.89362264  0.37294924  0.93327594     0.00600
Br1268     Br  0.01183413  0.42843764  0.94986911    -0.03200
Br1269     Br  0.96291024  0.45723171  0.94370964    -0.04000
Br1270     Br  0.03291136  0.46190326  0.82371304    -0.00100
C1271       C  0.14893025  0.48572309  0.58061654     0.01300
C1272       C  0.12533546  0.47026671  0.59169035     0.04200
C1273       C  0.11642441  0.47691210  0.61776555    -0.11900
C1274       C  0.13164085  0.49820798  0.63458506     0.23500
C1275       C  0.15594605  0.51246868  0.62563809    -0.12500
C1276       C  0.16437568  0.50669373  0.59801774     0.04900
C1277       C  0.12144194  0.50732139  0.65818456     0.27300
C1278       C  0.11934803  0.52630253  0.64909765    -0.13100
C1279       C  0.11077279  0.53591581  0.67137064     0.05400
C1280       C  0.10164728  0.52506840  0.70157767    -0.09100
C1281       C  0.10207559  0.50496347  0.70980680     0.06200
C1282       C  0.11320564  0.49693119  0.68892772    -0.13500
Br1283     Br  0.17719667  0.54097472  0.64978672    -0.05600
Br1284     Br  0.10494959  0.44017280  0.57046039     0.00100
Br1285     Br  0.11183400  0.56409338  0.65994655     0.00500
Br1286     Br  0.11735482  0.47192734  0.70244615    -0.03900
Br1287     Br  0.19620659  0.52886576  0.58221186     0.00600
Br1288     Br  0.08278777  0.45797624  0.62815579    -0.03200
Br1289     Br  0.12732717  0.53863962  0.60549818    -0.04000
Br1290     Br  0.08640631  0.48773430  0.74864195    -0.00100
C1291       C  0.14098436  0.48341948  0.96162646     0.01300
C1292       C  0.12235623  0.46542506  0.94277242     0.04200
C1293       C  0.11186942  0.47126549  0.91798416    -0.11900
C1294       C  0.11984397  0.49507842  0.91240013     0.23500
C1295       C  0.13888080  0.51306645  0.93077424    -0.12500
C1296       C  0.14961171  0.50726945  0.95503101     0.04900
C1297       C  0.10740107  0.50148733  0.88888946     0.27300
C1298       C  0.11759740  0.51051940  0.85836108    -0.13100
C1299       C  0.10758167  0.51964292  0.83782277     0.05400
C1300       C  0.08684254  0.51932280  0.84734995    -0.09100
C1301       C  0.07792837  0.51191187  0.87926601     0.06200
C1302       C  0.08745878  0.50201650  0.89917897    -0.13500
Br1303     Br  0.14951482  0.54568709  0.92368752    -0.05600
Br1304     Br  0.11055727  0.43288905  0.95205433     0.00100
Br1305     Br  0.12541139  0.53683630  0.79998908     0.00500
Br1306     Br  0.07393373  0.49008016  0.94155721    -0.03900
Br1307     Br  0.17595773  0.53211403  0.97973446     0.00600
Br1308     Br  0.08602727  0.44678802  0.89242873    -0.03200
Br1309     Br  0.14624660  0.51159649  0.84568170    -0.04000
Br1310     Br  0.05512148  0.51788813  0.89852874    -0.00100
C1311       C  0.16373931  0.68436487  0.56720542     0.01300
C1312       C  0.14873986  0.68817282  0.58708919     0.04200
C1313       C  0.13593691  0.67261039  0.61253998    -0.11900
C1314       C  0.13689790  0.65237822  0.61694998     0.23500
C1315       C  0.15195449  0.64856540  0.59718473    -0.12500
C1316       C  0.16578778  0.66485481  0.57283295     0.04900
C1317       C  0.12106238  0.63447937  0.64114254     0.27300
C1318       C  0.13008698  0.63365700  0.67153754    -0.13100
C1319       C  0.11562943  0.61529349  0.69326815     0.05400
C1320       C  0.09155987  0.59803993  0.68498129    -0.09100
C1321       C  0.08191391  0.60083141  0.65596452     0.06200
C1322       C  0.09687171  0.61833900  0.63362917    -0.13500
Br1323     Br  0.15280460  0.62051751  0.60260684    -0.05600
Br1324     Br  0.14415955  0.71358499  0.57792880     0.00100
Br1325     Br  0.13003406  0.61368005  0.73297118     0.00500
Br1326     Br  0.08444146  0.61975808  0.59200079    -0.03900
Br1327     Br  0.18741833  0.66045024  0.54693399     0.00600
Br1328     Br  0.11654835  0.67857626  0.64102245    -0.03200
Br1329     Br  0.16261466  0.65761508  0.68279026    -0.04000
Br1330     Br  0.04799361  0.58162725  0.64679892    -0.00100
C1331       C  0.10643946  0.60833444  0.82468335     0.01300
C1332       C  0.11905436  0.60732862  0.85157744     0.04200
C1333       C  0.12916323  0.62571430  0.87458612    -0.11900
C1334       C  0.12849402  0.64605785  0.86968810     0.23500
C1335       C  0.11750708  0.64794329  0.84179162    -0.12500
C1336       C  0.10600517  0.62892246  0.81972254     0.04900
C1337       C  0.13974744  0.66536042  0.89410841     0.27300
C1338       C  0.12592840  0.66651283  0.91914417    -0.13100
C1339       C  0.13721936  0.68211343  0.94543760     0.05400
C1340       C  0.16246351  0.69511727  0.94831508    -0.09100
C1341       C  0.17616375  0.69507984  0.92183880     0.06200
C1342       C  0.16473245  0.68064628  0.89456804    -0.13500
Br1343     Br  0.11781310  0.67640499  0.83441832    -0.05600
Br1344     Br  0.12194179  0.58064932  0.85863635     0.00100
Br1345     Br  0.11793425  0.68558071  0.97744942     0.00500
Br1346     Br  0.18325497  0.68015356  0.85861069    -0.03900
Br1347     Br  0.08962570  0.63116731  0.78265511     0.00600
Br1348     Br  0.14273903  0.62251601  0.91414852    -0.03200
Br1349     Br  0.09164733  0.64513849  0.91876481    -0.04000
Br1350     Br  0.21050437  0.71271135  0.92307483    -0.00100
C1351       C  0.87056680  0.30679477  0.51272657     0.01300
C1352       C  0.84855432  0.30037356  0.52751028     0.04200
C1353       C  0.82830349  0.27739136  0.52345561    -0.11900
C1354       C  0.82903085  0.26127791  0.50211031     0.23500
C1355       C  0.85064927  0.26784435  0.98647846    -0.12500
C1356       C  0.87156993  0.28996319  0.99298897     0.04900
C1357       C  0.80699306  0.23754943  0.49602942     0.27300
C1358       C  0.80452296  0.21716488  0.50965699    -0.13100
C1359       C  0.78357411  0.19481519  0.50422444     0.05400
C1360       C  0.76422992  0.19273156  0.48658949    -0.09100
C1361       C  0.76667829  0.21338473  0.97354901     0.06200
C1362       C  0.78825536  0.23544705  0.97726410    -0.13500
Br1363     Br  0.85132662  0.24675407  0.95503958    -0.05600
Br1364     Br  0.84504134  0.32333982  0.55107754     0.00100
Br1365     Br  0.78185707  0.16707247  0.52046197     0.00500
Br1366     Br  0.79224217  0.26301424  0.95647180    -0.03900
Br1367     Br  0.90163221  0.29639450  0.97566021     0.00600
Br1368     Br  0.79935379  0.26791667  0.54716209    -0.03200
Br1369     Br  0.82975574  0.22002447  0.53650906    -0.04000
Br1370     Br  0.73996986  0.21224800  0.95296885    -0.00100
C1371       C  0.52434680  0.23569658  0.48368576     0.01300
C1372       C  0.50591198  0.23695054  0.96859004     0.04200
C1373       C  0.50630809  0.25805722  0.96954944    -0.11900
C1374       C  0.52392210  0.27746290  0.98768401     0.23500
C1375       C  0.54264609  0.27649841  0.50238813    -0.12500
C1376       C  0.54316338  0.25586401  0.49964848     0.04900
C1377       C  0.52180362  0.29819056  0.99249569     0.27300
C1378       C  0.53598756  0.31879652  0.97431146    -0.13100
C1379       C  0.53281246  0.33782649  0.97752185     0.05400
C1380       C  0.51402804  0.33559673  0.99701720    -0.09100
C1381       C  0.49964838  0.31464144  0.51473197     0.06200
C1382       C  0.50414379  0.29642840  0.51339026    -0.13500
Br1383     Br  0.56721027  0.30330521  0.52653990    -0.05600
Br1384     Br  0.47882776  0.20930766  0.94909607     0.00100
Br1385     Br  0.55488775  0.36702091  0.95570590     0.00500
Br1386     Br  0.48519660  0.26839103  0.53912423    -0.03900
Br1387     Br  0.57000346  0.25557708  0.51719584     0.00600
Br1388     Br  0.48260447  0.26053052  0.94605533    -0.03200
Br1389     Br  0.55881703  0.32030754  0.94356671    -0.04000
Br1390     Br  0.47218474  0.30959581  0.53870111    -0.00100
C1391       C  0.69083021  0.12558427  0.53974784     0.01300
C1392       C  0.68550881  0.13858603  0.56147971     0.04200
C1393       C  0.66964528  0.12719360  0.58755959    -0.11900
C1394       C  0.65796294  0.10258258  0.59132475     0.23500
C1395       C  0.66396858  0.08973357  0.57063177    -0.12500
C1396       C  0.68063754  0.10122036  0.54531916     0.04900
C1397       C  0.63648604  0.09002727  0.61277693     0.27300
C1398       C  0.63792688  0.08405034  0.64504825    -0.13100
C1399       C  0.61736953  0.07342912  0.66510509     0.05400
C1400       C  0.59574323  0.07024357  0.65370441    -0.09100
C1401       C  0.59438244  0.07585784  0.62117959     0.06200
C1402       C  0.61436145  0.08488184  0.60062026    -0.13500
Br1403     Br  0.64809582  0.05608410  0.57587805    -0.05600
Br1404     Br  0.69761291  0.17149347  0.55386850     0.00100
Br1405     Br  0.61829854  0.06174726  0.70719872     0.00500
Br1406     Br  0.61154280  0.09038558  0.55542177    -0.03900
Br1407     Br  0.68919654  0.08335850  0.51807175     0.00600
Br1408     Br  0.66262073  0.14503471  0.61726332    -0.03200
Br1409     Br  0.66805843  0.09065376  0.66163661    -0.04000
Br1410     Br  0.56567321  0.07271661  0.60473701    -0.00100
C1411       C  0.69413021  0.13234814  0.91937024     0.01300
C1412       C  0.69628527  0.11698866  0.89815684     0.04200
C1413       C  0.68072922  0.10677354  0.87131756    -0.11900
C1414       C  0.66280388  0.11165374  0.86591157     0.23500
C1415       C  0.66185670  0.12832588  0.88572646    -0.12500
C1416       C  0.67742006  0.13859417  0.91234446     0.04900
C1417       C  0.64344439  0.09786088  0.84166046     0.27300
C1418       C  0.64431941  0.10731360  0.81106665    -0.13100
C1419       C  0.62406478  0.09643850  0.79062393     0.05400
C1420       C  0.60264005  0.07530811  0.80032026    -0.09100
C1421       C  0.60270731  0.06499120  0.83038379     0.06200
C1422       C  0.62289811  0.07640307  0.85085864    -0.13500
Br1423     Br  0.63851204  0.13641276  0.87701185    -0.05600
Br1424     Br  0.71972698  0.10911555  0.90680447     0.00100
Br1425     Br  0.62647156  0.11164664  0.74989378     0.00500
Br1426     Br  0.62214344  0.06338367  0.89286100    -0.03900
Br1427     Br  0.67522945  0.16062978  0.94007189     0.00600
Br1428     Br  0.68342955  0.08570254  0.84224885    -0.03200
Br1429     Br  0.67336480  0.13586075  0.79793744    -0.04000
Br1430     Br  0.57508917  0.03615348  0.84612061    -0.00100
C1431       C  0.52338957  0.17102302  0.54463789     0.01300
C1432       C  0.50262633  0.15791283  0.56363495     0.04200
C1433       C  0.50178881  0.14282295  0.58779440    -0.11900
C1434       C  0.52144325  0.14040594  0.59218338     0.23500
C1435       C  0.54280425  0.15489518  0.57484116    -0.12500
C1436       C  0.54390364  0.17058793  0.55164516     0.04900
C1437       C  0.51946281  0.12184992  0.61357032     0.27300
C1438       C  0.53109283  0.12805390  0.64369898    -0.13100
C1439       C  0.53294139  0.11135273  0.66151053     0.05400
C1440       C  0.52169529  0.08766956  0.65009576    -0.09100
C1441       C  0.50828247  0.08115817  0.62087406     0.06200
C1442       C  0.50770152  0.09836104  0.60242757    -0.13500
Br1443     Br  0.57009843  0.15221059  0.58128028    -0.05600
Br1444     Br  0.47494604  0.15952195  0.55523470     0.00100
Br1445     Br  0.55309486  0.12250126  0.69966710     0.00500
Br1446     Br  0.49150361  0.08998369  0.56102239    -0.03900
Br1447     Br  0.57346932  0.19126982  0.02847432     0.00600
Br1448     Br  0.47348541  0.12462652  0.61393121    -0.03200
Br1449     Br  0.54528465  0.15997169  0.65976092    -0.04000
Br1450     Br  0.49019075  0.04883349  0.60540669    -0.00100
C1451       C  0.52533963  0.08609786  0.81968275     0.01300
C1452       C  0.51438353  0.09762538  0.80631211     0.04200
C1453       C  0.51112696  0.11316560  0.82554371    -0.11900
C1454       C  0.51962511  0.11830931  0.85752501     0.23500
C1455       C  0.53078836  0.10740657  0.87082818    -0.12500
C1456       C  0.53381577  0.09154486  0.85215406     0.04900
C1457       C  0.51744883  0.13559707  0.87745634     0.27300
C1458       C  0.53622481  0.15953042  0.87800154    -0.13100
C1459       C  0.53664087  0.17492287  0.90179655     0.05400
C1460       C  0.51820022  0.16630611  0.92510387    -0.09100
C1461       C  0.49821642  0.14293290  0.92227903     0.06200
C1462       C  0.49789903  0.12763019  0.89854976    -0.13500
Br1463     Br  0.54216011  0.11457944  0.91508068    -0.05600
Br1464     Br  0.50395432  0.09339233  0.76165074     0.00100
Br1465     Br  0.56344321  0.20714769  0.90381924     0.00500
Br1466     Br  0.47133152  0.09531861  0.89591510    -0.03900
Br1467     Br  0.55177047  0.07945154  0.87116416     0.00600
Br1468     Br  0.49472210  0.12747353  0.80850943    -0.03200
Br1469     Br  0.56206146  0.17071763  0.84728039    -0.04000
Br1470     Br  0.47151078  0.13154702  0.95167931    -0.00100
C1471       C  0.32302300  0.88051306  0.49984716     0.01300
C1472       C  0.30075376  0.87151037  0.98428423     0.04200
C1473       C  0.28190002  0.84801666  0.98925853    -0.11900
C1474       C  0.28486394  0.83354915  0.51050412     0.23500
C1475       C  0.30687173  0.84237624  0.52632448    -0.12500
C1476       C  0.32611919  0.86547490  0.52020978     0.04900
C1477       C  0.26514752  0.80857780  0.51483079     0.27300
C1478       C  0.24554009  0.80277073  0.53501285    -0.13100
C1479       C  0.22557765  0.77940910  0.53576367     0.05400
C1480       C  0.22584186  0.76155194  0.51778944    -0.09100
C1481       C  0.24684931  0.76692406  0.00122041     0.06200
C1482       C  0.26585276  0.79047571  0.99814619    -0.13500
Br1483     Br  0.31034343  0.82286422  0.55702591    -0.05600
Br1484     Br  0.29541010  0.89150370  0.95727190     0.00100
Br1485     Br  0.19796648  0.77222336  0.56098239     0.00500
Br1486     Br  0.29245394  0.79816577  0.97015026    -0.03900
Br1487     Br  0.35701302  0.87589896  0.53862139     0.00600
Br1488     Br  0.25173776  0.83572362  0.96732678    -0.03200
Br1489     Br  0.24615404  0.82694735  0.56136723    -0.04000
Br1490     Br  0.25066597  0.74202655  0.98572227    -0.00100
C1491       C  0.45210549  0.00099199  0.69251771     0.01300
C1492       C  0.44821638  0.01749795  0.67734242     0.04200
C1493       C  0.43057750  0.00971090  0.65313220    -0.11900
C1494       C  0.41539537  0.98540283  0.64688254     0.23500
C1495       C  0.41494426  0.96916485  0.66862350    -0.12500
C1496       C  0.43343870  0.97687772  0.69132603     0.04900
C1497       C  0.40412665  0.97669121  0.61468157     0.27300
C1498       C  0.38241375  0.97456711  0.60653630    -0.13100
C1499       C  0.37145439  0.96453482  0.57645689     0.05400
C1500       C  0.38133614  0.95518529  0.55565729    -0.09100
C1501       C  0.40210328  0.95587975  0.56509675     0.06200
C1502       C  0.41433589  0.96799338  0.59327980    -0.13500
Br1503     Br  0.39081706  0.93600158  0.66391652    -0.05600
Br1504     Br  0.46600985  0.05029092  0.68991143     0.00100
Br1505     Br  0.34238016  0.96251646  0.56432564     0.00500
Br1506     Br  0.44484980  0.97190420  0.60304709    -0.03900
Br1507     Br  0.43305632  0.95397950  0.71951338     0.00600
Br1508     Br  0.42863509  0.03220581  0.62678860    -0.03200
Br1509     Br  0.36713267  0.98410965  0.63722977    -0.04000
Br1510     Br  0.41196214  0.93731491  0.54242409    -0.00100
C1511       C  0.38426606  0.95108417  0.93499973     0.01300
C1512       C  0.37148088  0.95092654  0.90745011     0.04200
C1513       C  0.38299114  0.95855322  0.87711349    -0.11900
C1514       C  0.40769402  0.96803195  0.87462449     0.23500
C1515       C  0.42079365  0.96971204  0.90237316    -0.12500
C1516       C  0.40915796  0.96081943  0.93212749     0.04900
C1517       C  0.42024011  0.97448910  0.84289294     0.27300
C1518       C  0.42617549  0.95918331  0.82900658    -0.13100
C1519       C  0.44525257  0.96776682  0.80691108     0.05400
C1520       C  0.45771938  0.99189979  0.79668455    -0.09100
C1521       C  0.44862669  0.00587806  0.80695017     0.06200
C1522       C  0.43041832  0.99735741  0.83058852    -0.13500
Br1523     Br  0.45489083  0.98330186  0.89909766    -0.05600
Br1524     Br  0.33858339  0.94157951  0.91128726     0.00100
Br1525     Br  0.45421599  0.94562990  0.79409420     0.00500
Br1526     Br  0.42001559  0.01726791  0.84758605    -0.03900
Br1527     Br  0.42784827  0.96094874  0.96774127     0.00600
Br1528     Br  0.36488706  0.95501749  0.83866539    -0.03200
Br1529     Br  0.40910713  0.92666671  0.84308285    -0.04000
Br1530     Br  0.46048631  0.03669118  0.78944690    -0.00100
C1531       C  0.53641241  0.73803595  0.99196585     0.01300
C1532       C  0.51255012  0.72963370  0.50262680     0.04200
C1533       C  0.50427615  0.74502751  0.50359265    -0.11900
C1534       C  0.51888688  0.76801891  0.99108641     0.23500
C1535       C  0.54156924  0.77564098  0.97798313    -0.12500
C1536       C  0.55079252  0.76116335  0.97993013     0.04900
C1537       C  0.51127643  0.78505370  0.99318725     0.27300
C1538       C  0.49491443  0.78424358  0.97069181    -0.13100
C1539       C  0.49163712  0.80322744  0.96877605     0.05400
C1540       C  0.50572064  0.82366796  0.48774702    -0.09100
C1541       C  0.52116792  0.82379650  0.51139103     0.06200
C1542       C  0.52309014  0.80413257  0.51480393    -0.13500
Br1543     Br  0.55995998  0.80600808  0.95712204    -0.05600
Br1544     Br  0.49119782  0.69692866  0.51397495     0.00100
Br1545     Br  0.46761767  0.80120645  0.94018074     0.00500
Br1546     Br  0.54371337  0.80399257  0.54773922    -0.03900
Br1547     Br  0.58354872  0.77357315  0.96747405     0.00600
Br1548     Br  0.47364904  0.73493832  0.52267881    -0.03200
Br1549     Br  0.47830761  0.75798978  0.94099368    -0.04000
Br1550     Br  0.54176496  0.85142801  0.53712732    -0.00100
C1551       C  0.49790520  0.88948249  0.52763174     0.01300
C1552       C  0.51670769  0.90167062  0.55003891     0.04200
C1553       C  0.51459866  0.91415692  0.57567620    -0.11900
C1554       C  0.49519390  0.91716493  0.57650653     0.23500
C1555       C  0.47672652  0.90579615  0.55342656    -0.12500
C1556       C  0.47773079  0.89132284  0.52949243     0.04900
C1557       C  0.49676614  0.93544880  0.59823105     0.27300
C1558       C  0.48931211  0.93016350  0.63063772    -0.13100
C1559       C  0.49501857  0.94853604  0.65264202     0.05400
C1560       C  0.50830819  0.97227628  0.64210715    -0.09100
C1561       C  0.51433781  0.97726532  0.60909762     0.06200
C1562       C  0.50880106  0.95888666  0.58728650    -0.13500
Br1563     Br  0.45108804  0.91137844  0.55349502    -0.05600
Br1564     Br  0.54702530  0.90488953  0.54266326     0.00100
Br1565     Br  0.48389859  0.94078935  0.69688243     0.00500
Br1566     Br  0.51912639  0.96584426  0.54265999    -0.03900
Br1567     Br  0.45235221  0.87523647  0.49810420     0.00600
Br1568     Br  0.53910562  0.92845472  0.60862721    -0.03200
Br1569     Br  0.47226588  0.89780247  0.64487603    -0.04000
Br1570     Br  0.53153112  0.00926037  0.59377958    -0.00100
C1571       C  0.53396052  0.97852571  0.81109585     0.01300
C1572       C  0.54554163  0.96703612  0.79970508     0.04200
C1573       C  0.54512637  0.94939922  0.81839497    -0.11900
C1574       C  0.53438312  0.94394321  0.84907938     0.23500
C1575       C  0.52534080  0.95703127  0.86212125    -0.12500
C1576       C  0.52449715  0.97383290  0.84310950     0.04900
C1577       C  0.53113719  0.92360086  0.86740220     0.27300
C1578       C  0.50835176  0.90259959  0.86815510    -0.13100
C1579       C  0.50313748  0.88561926  0.89186942     0.05400
C1580       C  0.52084288  0.88947910  0.91428341    -0.09100
C1581       C  0.54439657  0.90898757  0.91080726     0.06200
C1582       C  0.54952700  0.92625693  0.88755589    -0.13500
Br1583     Br  0.51359628  0.95134051  0.90626616    -0.05600
Br1584     Br  0.56276476  0.97525909  0.75900475     0.00100
Br1585     Br  0.47118019  0.85826171  0.89593806     0.00500
Br1586     Br  0.58099113  0.95454407  0.88541575    -0.03900
Br1587     Br  0.50893210  0.98877271  0.86163542     0.00600
Br1588     Br  0.55884623  0.93219851  0.80192255    -0.03200
Br1589     Br  0.48374114  0.89825627  0.83865489    -0.04000
Br1590     Br  0.56896911  0.91295430  0.93995655    -0.00100
loop_ 
_geom_bond_atom_site_label_1 
_geom_bond_atom_site_label_2 
_geom_bond_distance 
_geom_bond_site_symmetry_2 
_ccdc_geom_bond_type 
C1            C6   1.404   1_556  A
C1          C797   1.409       .  A
C1          C745   1.482       .  S
C2            C3   1.400       .  A
C2          C796   1.409       .  A
C2            H7   1.083       .  S
C3            C4   1.397       .  A
C3          C785   1.470       .  S
C4          C800   1.394       .  A
C4            H8   1.086       .  S
C5            C6   1.400       .  A
C5          C799   1.394   1_554  A
C5          C756   1.470       .  S
C6            H9   1.080       .  S
C10          C11   1.402   1_556  A
C10         C810   1.410       .  A
C10         C676   1.490       .  S
C11          C12   1.396       .  A
C11          H16   1.086       .  S
C12         C808   1.403   1_554  A
C12         C705   1.478       .  S
C13          C14   1.408       .  A
C13         C807   1.403       .  A
C13          H17   1.084       .  S
C14          C15   1.412       .  A
C14         C716   1.497       .  S
C15         C805   1.410       .  A
C15          H18   1.083       .  S
O19          C27   1.277   1_545  A
O19         Co39   2.015       .  S
O20          C28   1.251       .  A
O20         Co40   1.973       .  S
O21          C29   1.257       .  A
O21         Co41   1.965       .  S
O22          C30   1.249       .  A
O22         Co42   1.995       .  S
O23          C29   1.265   1_545  A
O23         Co40   2.011       .  S
O24          C30   1.244       .  A
O24         Co39   1.981       .  S
O25          C28   1.262       .  A
O25         Co42   2.021       .  S
O26          C27   1.265       .  A
O26         Co41   1.956       .  S
C27         C776   1.493       .  S
C28         C605   1.491       .  S
C29         C765   1.475       .  S
C30         C625   1.507       .  S
O31          C44   1.276       .  A
O31         Co39   1.895       .  S
O32          C45   1.261       .  A
O32         Co40   1.991       .  S
O33          C46   1.253   1_565  A
O33         Co41   1.981       .  S
O34          C47   1.292       .  A
O34         Co42   2.074       .  S
O35          C47   1.263       .  A
O35         Co40   1.885       .  S
O36          C46   1.264       .  A
O36         Co39   2.010       .  S
O37          C44   1.297       .  A
O37         Co42   2.075       .  S
O38          C45   1.269   1_565  A
O38         Co41   2.016       .  S
Co39         O43   1.924       .  S
Co40         O43   1.939       .  S
Co41         O43   2.077   1_565  S
Co42         O43   2.237       .  S
C44         C656   1.503       .  S
C45         C696   1.495       .  S
C46         C725   1.509   1_545  S
C47         C645   1.490       .  S
C48          C53   1.405   1_556  A
C48         C844   1.411       .  A
C48         C576   1.485       .  S
C49          C50   1.405       .  A
C49         C843   1.411       .  A
C49          H54   1.078       .  S
C50          C51   1.399       .  A
C50         C665   1.486       .  S
C51         C847   1.397       .  A
C51          H55   1.084       .  S
C52          C53   1.396       .  A
C52         C846   1.397   1_554  A
C52         C636   1.473       .  S
C53          H56   1.092       .  S
C57          C58   1.410   1_556  A
C57         C857   1.412       .  A
C57         C565   1.500       .  S
C58          C59   1.407       .  A
C58          H63   1.083       .  S
C59          C60   1.404   1_554  A
C59         C596   1.497       .  S
C60         C856   1.404       .  A
C60          H64   1.086       .  S
C61          C62   1.407       .  A
C61         C855   1.404       .  A
C61         C616   1.488       .  S
C62         C852   1.412       .  A
C62          H65   1.083       .  S
O66          C74   1.255       .  A
O66         Co86   1.965       .  S
O67          C75   1.266       .  A
O67         Co87   1.974       .  S
O68          C76   1.294       .  A
O68         Co88   2.110       .  S
O69          C77   1.272       .  A
O69         Co89   2.029   1_655  S
O70          C76   1.263       .  A
O70         Co87   1.883       .  S
O71          C77   1.254   1_455  A
O71         Co86   1.959       .  S
O72          C75   1.278   1_655  A
O72         Co89   2.033   1_655  S
O73          C74   1.265       .  A
O73         Co88   2.017       .  S
C74         C536   1.483       .  S
C75         C396   1.485   1_455  S
C76         C525   1.492       .  S
C77         C416   1.484       .  S
O78          C91   1.275       .  A
O78         Co86   2.027       .  S
O79          C92   1.292       .  A
O79         Co87   2.092       .  S
O80          C93   1.274       .  A
O80         Co88   1.985       .  S
O81          C94   1.249       .  A
O81         Co89   1.967       .  S
O82          C94   1.262       .  A
O82         Co87   2.010       .  S
O83          C93   1.276       .  A
O83         Co86   2.022       .  S
O84          C91   1.255       .  A
O84         Co89   1.933       .  S
O85          C92   1.267       .  A
O85         Co88   1.909       .  S
Co86         O90   2.009       .  S
Co87         O90   1.997       .  S
Co88         O90   2.013       .  S
Co89         O90   2.034       .  S
C91         C465   1.477       .  S
C92         C485   1.478       .  S
C93         C505   1.495       .  S
C94         C436   1.484       .  S
C95         C100   1.411       .  A
C95         C891   1.411   1_554  A
C95         C385   1.497       .  S
C96          C97   1.402       .  A
C96         C890   1.411       .  A
C96         H101   1.079       .  S
C97         C893   1.396       .  A
C97         C496   1.477       .  S
C98          C99   1.398       .  A
C98         C892   1.396   1_554  A
C98         H102   1.084       .  S
C99         C100   1.403       .  A
C99         C476   1.482       .  S
C100        H103   1.083       .  S
C104        C109   1.417       .  A
C104        C900   1.410   1_554  A
C104        C556   1.498       .  S
C105        C106   1.400       .  A
C105        C899   1.410       .  A
C105        H110   1.082       .  S
C106        C902   1.394       .  A
C106        C456   1.480       .  S
C107        C108   1.393       .  A
C107        C901   1.394   1_554  A
C107        H111   1.088       .  S
C108        C109   1.407       .  A
C108        C445   1.483       .  S
C109        H112   1.084       .  S
C113        C118   1.409       .  A
C113        C909   1.403   1_554  A
C113        C365   1.493       .  S
C114        C115   1.397       .  A
C114        C908   1.403       .  A
C114        H119   1.091       .  S
C115        C911   1.403       .  A
C115        C425   1.482       .  S
C116        C117   1.406       .  A
C116        C910   1.403   1_554  A
C116        H120   1.084       .  S
C117        C118   1.408       .  A
C117        C405   1.495       .  S
C118        H121   1.080       .  S
C122        C127   1.404       .  A
C122        C918   1.412   1_554  A
C122        C685   1.487       .  S
C123        C124   1.409       .  A
C123        C917   1.412       .  A
C123        H128   1.081       .  S
C124        C920   1.404       .  A
C124        C545   1.498       .  S
C125        C126   1.399       .  A
C125        C919   1.404   1_554  A
C125        H129   1.088       .  S
C126        C127   1.401       .  A
C126        C516   1.478       .  S
C127        H130   1.082       .  S
O131        C139   1.274       .  A
O131       Co151   2.025       .  S
O132        C140   1.260       .  A
O132       Co152   2.016       .  S
O133        C141   1.263       .  A
O133       Co153   1.873       .  S
O134        C142   1.257       .  A
O134       Co154   1.945       .  S
O135        C141   1.303       .  A
O135       Co152   2.129       .  S
O136        C142   1.270       .  A
O136       Co151   2.007       .  S
O137        C140   1.249       .  A
O137       Co154   1.964       .  S
O138        C139   1.266       .  A
O138       Co153   1.982       .  S
C139        C345   1.502       .  S
C140        C196   1.484       .  S
C141        C316   1.490       .  S
C142        C216   1.484       .  S
O143        C156   1.258       .  A
O143       Co151   1.957       .  S
O144        C157   1.261       .  A
O144       Co152   1.867       .  S
O145        C158   1.264       .  A
O145       Co153   2.009       .  S
O146        C159   1.281       .  A
O146       Co154   2.039       .  S
O147        C159   1.274       .  A
O147       Co152   1.987       .  S
O148        C158   1.258       .  A
O148       Co151   1.969       .  S
O149        C156   1.271       .  A
O149       Co154   2.023       .  S
O150        C157   1.296       .  A
O150       Co153   2.114       .  S
Co151       O155   2.022       .  S
Co152       O155   2.006       .  S
Co153       O155   2.000       .  S
Co154       O155   2.022       .  S
C156        C256   1.507       .  S
C157        C276   1.479       .  S
C158        C305   1.478       .  S
C159        C236   1.496       .  S
C160        C165   1.407       .  A
C160        C956   1.410       .  A
C160        C585   1.491       .  S
C161        C162   1.405       .  A
C161        C955   1.411   1_554  A
C161        H166   1.083       .  S
C162        C958   1.399   1_554  A
C162        C336   1.489       .  S
C163        C164   1.401       .  A
C163        C957   1.399       .  A
C163        H167   1.083       .  S
C164        C165   1.400       .  A
C164        C325   1.486       .  S
C165        H168   1.083       .  S
C169        C174   1.406       .  A
C169        C965   1.405       .  A
C169        C376   1.474       .  S
C170        C171   1.402       .  A
C170        C964   1.405   1_554  A
C170        H175   1.080       .  S
C171        C967   1.394   1_554  A
C171        C225   1.473       .  S
C172        C173   1.392       .  A
C172        C966   1.394       .  A
C172        H176   1.087       .  S
C173        C174   1.401       .  A
C173        C205   1.468       .  S
C174        H177   1.083       .  S
C178        C183   1.409       .  A
C178        C974   1.404       .  A
C178        C356   1.483       .  S
C179        C180   1.398       .  A
C179        C973   1.405       .  A
C179        H184   1.084       .  S
C180        C976   1.397   1_554  A
C180        C296   1.475       .  S
C181        C182   1.401       .  A
C181        C975   1.396       .  A
C181        H185   1.080       .  S
C182        C183   1.404       .  A
C182        C285   1.484       .  S
C183        H186   1.085       .  S
C187        C188   1.402       .  A
C187        C987   1.408       .  A
C187        C736   1.478       .  S
C188        C189   1.395       .  A
C188        H193   1.085       .  S
C189        C190   1.398       .  A
C189        C245   1.469       .  S
C190        C986   1.401       .  A
C190        H194   1.084       .  S
C191        C192   1.405       .  A
C191        C985   1.401   1_554  A
C191        C265   1.483       .  S
C192        C982   1.408   1_554  A
C192        H195   1.085       .  S
C196        C197   1.414       .  A
C196        C201   1.421       .  A
C197        C198   1.408       .  A
C197       Br209   1.929       .  S
C198        C199   1.408       .  A
C198       Br213   1.931       .  S
C199        C200   1.402       .  A
C199        C202   1.477       .  S
C200        C201   1.403       .  A
C200       Br208   1.933       .  S
C201       Br212   1.936       .  S
C202        C203   1.408       .  A
C202        C207   1.408       .  A
C203        C204   1.404       .  A
C203       Br214   1.930       .  S
C204        C205   1.408       .  A
C204       Br210   1.930       .  S
C205        C206   1.408       .  A
C206        C207   1.404       .  A
C206       Br215   1.930       .  S
C207       Br211   1.930       .  S
C216        C217   1.419       .  A
C216        C221   1.423       .  A
C217        C218   1.401       .  A
C217       Br229   1.933       .  S
C218        C219   1.406       .  A
C218       Br233   1.938       .  S
C219        C220   1.403       .  A
C219        C222   1.473       .  S
C220        C221   1.405       .  A
C220       Br228   1.933       .  S
C221       Br232   1.937       .  S
C222        C223   1.408       .  A
C222        C227   1.407       .  A
C223        C224   1.400       .  A
C223       Br234   1.934       .  S
C224        C225   1.410       .  A
C224       Br230   1.927       .  S
C225        C226   1.413       .  A
C226        C227   1.404       .  A
C226       Br235   1.931       .  S
C227       Br231   1.931       .  S
C236        C237   1.418       .  A
C236        C241   1.416       .  A
C237        C238   1.407       .  A
C237       Br249   1.918       .  S
C238        C239   1.403       .  A
C238       Br253   1.935       .  S
C239        C240   1.401       .  A
C239        C242   1.478       .  S
C240        C241   1.408       .  A
C240       Br248   1.932       .  S
C241       Br252   1.909       .  S
C242        C243   1.409       .  A
C242        C247   1.408       .  A
C243        C244   1.402       .  A
C243       Br254   1.931       .  S
C244        C245   1.407       .  A
C244       Br250   1.931       .  S
C245        C246   1.407       .  A
C246        C247   1.406       .  A
C246       Br255   1.928       .  S
C247       Br251   1.927       .  S
C256        C257   1.428       .  A
C256        C261   1.426       .  A
C257        C258   1.410       .  A
C257       Br269   1.937       .  S
C258        C259   1.405       .  A
C258       Br273   1.934       .  S
C259        C260   1.404       .  A
C259        C262   1.488       .  S
C260        C261   1.407       .  A
C260       Br268   1.931       .  S
C261       Br272   1.936       .  S
C262        C263   1.409       .  A
C262        C267   1.411       .  A
C263        C264   1.402       .  A
C263       Br274   1.926       .  S
C264        C265   1.412       .  A
C264       Br270   1.933       .  S
C265        C266   1.411       .  A
C266        C267   1.411       .  A
C266       Br275   1.928       .  S
C267       Br271   1.929       .  S
C276        C277   1.412       .  A
C276        C281   1.415       .  A
C277        C278   1.411       .  A
C277       Br289   1.928       .  S
C278        C279   1.408       .  A
C278       Br293   1.927       .  S
C279        C280   1.407       .  A
C279        C282   1.481       .  S
C280        C281   1.402       .  A
C280       Br288   1.935       .  S
C281       Br292   1.931       .  S
C282        C283   1.408       .  A
C282        C287   1.407       .  A
C283        C284   1.409       .  A
C283       Br294   1.929       .  S
C284        C285   1.413       .  A
C284       Br290   1.929       .  S
C285        C286   1.414       .  A
C286        C287   1.404       .  A
C286      Br1090   1.933       .  S
C287       Br291   1.931       .  S
Br295      C1081   1.933       .  S
C296        C297   1.411       .  A
C296        C301   1.410       .  A
C297        C298   1.407       .  A
C297       Br309   1.930       .  S
C298        C299   1.408       .  A
C298       Br313   1.929       .  S
C299        C300   1.408       .  A
C299        C302   1.478       .  S
C300        C301   1.402       .  A
C300       Br308   1.932       .  S
C301       Br312   1.932       .  S
C302        C303   1.407       .  A
C302        C307   1.405       .  A
C303        C304   1.407       .  A
C303       Br314   1.929       .  S
C304        C305   1.413       .  A
C304       Br310   1.930       .  S
C305        C306   1.419       .  A
C306        C307   1.404       .  A
C306       Br315   1.935       .  S
C307       Br311   1.934       .  S
C316        C317   1.416       .  A
C316        C321   1.421       .  A
C317        C318   1.409       .  A
C317       Br329   1.929       .  S
C318        C319   1.407       .  A
C318       Br333   1.929       .  S
C319        C320   1.406       .  A
C319        C322   1.485       .  S
C320        C321   1.406       .  A
C320       Br328   1.934       .  S
C321       Br332   1.936       .  S
C322        C323   1.406       .  A
C322        C327   1.410       .  A
C323        C324   1.396       .  A
C323       Br334   1.923       .  S
C324        C325   1.413       .  A
C324       Br330   1.938       .  S
C325        C326   1.416       .  A
C326        C327   1.413       .  A
C326       Br335   1.928       .  S
C327       Br331   1.927       .  S
C336        C337   1.414       .  A
C336        C341   1.416       .  A
C337        C338   1.407       .  A
C337       Br349   1.931       .  S
C338        C339   1.408       .  A
C338       Br353   1.931       .  S
C339        C340   1.409       .  A
C339        C342   1.488       .  S
C340        C341   1.410       .  A
C340       Br348   1.930       .  S
C341       Br352   1.932       .  S
C342        C343   1.406       .  A
C342        C347   1.405       .  A
C343        C344   1.408       .  A
C343       Br354   1.934       .  S
C344        C345   1.421       .  A
C344       Br350   1.933       .  S
C345        C346   1.424       .  A
C346        C347   1.412       .  A
C346       Br355   1.931       .  S
C347       Br351   1.931       .  S
C356        C357   1.411       .  A
C356       C1156   1.414       .  A
C357        C358   1.405       .  A
C357       Br369   1.932       .  S
C358       C1154   1.411       .  A
C358       Br373   1.932       .  S
C359        C360   1.410       .  A
C359       C1153   1.411   1_554  A
C359        C362   1.486       .  S
C360        C361   1.407       .  A
C360       Br368   1.931       .  S
C361       C1151   1.414       .  A
C361       Br372   1.932       .  S
C362        C367   1.409       .  A
C362       C1158   1.407       .  A
C363        C364   1.406       .  A
C363       C1157   1.407       .  A
C363       Br374   1.932       .  S
C364       C1160   1.419       .  A
C364       Br370   1.935       .  S
C365        C366   1.416       .  A
C365       C1159   1.419       .  A
C366        C367   1.407       .  A
C366       Br375   1.931       .  S
C367       Br371   1.932       .  S
C376        C381   1.408       .  A
C376       C1172   1.409       .  A
C377        C378   1.404       .  A
C377       C1171   1.409       .  A
C377       Br389   1.928       .  S
C378        C379   1.410       .  A
C378       Br393   1.932       .  S
C379       C1175   1.410   1_554  A
C379        C382   1.483       .  S
C380        C381   1.407       .  A
C380       C1174   1.410       .  A
C380       Br388   1.928       .  S
C381       Br392   1.929       .  S
C382        C383   1.407       .  A
C382       C1182   1.405   1_554  A
C383        C384   1.409       .  A
C383       Br394   1.931       .  S
C384        C385   1.420       .  A
C384       Br390   1.933       .  S
C385       C1181   1.422   1_554  A
C386        C387   1.405       .  A
C386       C1180   1.422       .  A
C386       Br395   1.935       .  S
C387       C1177   1.405       .  A
C387       Br391   1.935       .  S
C396        C397   1.414       .  A
C396        C401   1.415       .  A
C397        C398   1.400       .  A
C397       Br409   1.923       .  S
C398        C399   1.406       .  A
C398       Br413   1.939       .  S
C399        C400   1.411       .  A
C399        C402   1.488       .  S
C400        C401   1.415       .  A
C400       Br408   1.927       .  S
C401       Br412   1.929   1_655  S
C402        C403   1.408       .  A
C402        C407   1.409       .  A
C403        C404   1.410       .  A
C403       Br414   1.930   1_655  S
C404        C405   1.418       .  A
C404       Br410   1.932       .  S
C405        C406   1.416       .  A
C406        C407   1.407       .  A
C406       Br415   1.932       .  S
C407       Br411   1.933       .  S
C416        C417   1.420       .  A
C416        C421   1.411       .  A
C417        C418   1.405       .  A
C417       Br429   1.937   1_655  S
C418        C419   1.406       .  A
C418       Br433   1.935       .  S
C419        C420   1.409       .  A
C419        C422   1.484       .  S
C420        C421   1.411       .  A
C420       Br428   1.927       .  S
C421       Br432   1.930       .  S
C422        C423   1.409       .  A
C422        C427   1.409       .  A
C423        C424   1.407       .  A
C423       Br434   1.928       .  S
C424        C425   1.411       .  A
C424      Br1225   1.931       .  S
C425        C426   1.411       .  A
C426        C427   1.407       .  A
C426       Br435   1.929       .  S
C427       Br431   1.929       .  S
Br430      C1219   1.932       .  S
C436        C437   1.418   1_455  A
C436        C441   1.411       .  A
C437        C438   1.406       .  A
C437       Br449   1.935       .  S
C438        C439   1.406       .  A
C438       Br453   1.931       .  S
C439        C440   1.411       .  A
C439        C442   1.487       .  S
C440        C441   1.410   1_655  A
C440       Br448   1.929   1_655  S
C441       Br452   1.931       .  S
C442        C443   1.410       .  A
C442        C447   1.409       .  A
C443        C444   1.411       .  A
C443       Br454   1.928       .  S
C444        C445   1.411       .  A
C444       Br450   1.928       .  S
C445        C446   1.412       .  A
C446        C447   1.406       .  A
C446       Br455   1.931       .  S
C447       Br451   1.931       .  S
C456        C457   1.416       .  A
C456        C461   1.412       .  A
C457        C458   1.401       .  A
C457      Br1264   1.934       .  S
C458        C459   1.405       .  A
C458       Br473   1.931   1_655  S
C459        C460   1.409       .  A
C459        C462   1.475       .  S
C460        C461   1.405       .  A
C460       Br468   1.933       .  S
C461       Br472   1.930       .  S
C462        C463   1.408       .  A
C462        C467   1.405       .  A
C463        C464   1.402       .  A
C463       Br474   1.935       .  S
C464        C465   1.413   1_655  A
C464       Br470   1.929       .  S
C465        C466   1.418       .  A
C466        C467   1.403   1_455  A
C466       Br475   1.935       .  S
C467       Br471   1.931       .  S
Br469      C1252   1.934       .  S
C476        C477   1.412       .  A
C476        C481   1.411       .  A
C477        C478   1.405       .  A
C477       Br489   1.932       .  S
C478        C479   1.410       .  A
C478       Br493   1.932       .  S
C479        C480   1.413       .  A
C479        C482   1.486       .  S
C480        C481   1.408       .  A
C480       Br488   1.932       .  S
C481       Br492   1.931       .  S
C482        C483   1.408       .  A
C482        C487   1.412       .  A
C483        C484   1.402       .  A
C483       Br494   1.936       .  S
C484        C485   1.409       .  A
C484       Br490   1.918       .  S
C485        C486   1.410       .  A
C486        C487   1.411       .  A
C486       Br495   1.927       .  S
C487       Br491   1.929       .  S
C496        C497   1.408       .  A
C496        C501   1.411       .  A
C497        C498   1.410       .  A
C497       Br509   1.927       .  S
C498        C499   1.410       .  A
C498       Br513   1.928       .  S
C499        C500   1.409       .  A
C499        C502   1.483       .  S
C500        C501   1.403       .  A
C500       Br508   1.933       .  S
C501       Br512   1.933       .  S
C502        C503   1.406       .  A
C502        C507   1.405       .  A
C503        C504   1.408       .  A
C503       Br514   1.931       .  S
C504        C505   1.417       .  A
C504       Br510   1.928       .  S
C505        C506   1.421       .  A
C506        C507   1.407       .  A
C506       Br515   1.927       .  S
C507       Br511   1.935       .  S
C516        C517   1.410       .  A
C516        C521   1.409       .  A
C517        C518   1.405       .  A
C517       Br529   1.928       .  S
C518        C519   1.407       .  A
C518       Br533   1.930       .  S
C519        C520   1.411       .  A
C519        C522   1.483       .  S
C520        C521   1.408       .  A
C520       Br528   1.930       .  S
C521       Br532   1.929       .  S
C522        C523   1.406       .  A
C522        C527   1.406       .  A
C523        C524   1.409       .  A
C523       Br534   1.931       .  S
C524        C525   1.422       .  A
C524       Br530   1.932       .  S
C525        C526   1.420       .  A
C526        C527   1.405       .  A
C526       Br535   1.937       .  S
C527       Br531   1.933       .  S
C536        C537   1.416       .  A
C536        C541   1.415       .  A
C537        C538   1.405       .  A
C537       Br549   1.926       .  S
C538        C539   1.407       .  A
C538       Br553   1.935       .  S
C539        C540   1.407       .  A
C539        C542   1.484       .  S
C540        C541   1.409       .  A
C540       Br548   1.928       .  S
C541       Br552   1.932       .  S
C542        C543   1.407       .  A
C542        C547   1.405       .  A
C543        C544   1.408       .  A
C543       Br554   1.931       .  S
C544        C545   1.418       .  A
C544       Br550   1.932       .  S
C545        C546   1.418       .  A
C546        C547   1.408       .  A
C546       Br555   1.922       .  S
C547       Br551   1.933       .  S
C556        C557   1.417       .  A
C556       C1356   1.419   1_554  A
C557        C558   1.410       .  A
C557       Br569   1.933       .  S
C558        C559   1.410       .  A
C558       Br573   1.931       .  S
C559       C1355   1.409   1_554  A
C559        C562   1.496   1_554  S
C560        C561   1.411       .  A
C560       C1354   1.409       .  A
C560       Br568   1.931       .  S
C561       C1351   1.419       .  A
C561       Br572   1.934       .  S
C562        C563   1.410   1_556  A
C562       C1362   1.410       .  A
C563        C564   1.412       .  A
C563       Br574   1.931       .  S
C564        C565   1.417   1_554  A
C564       Br570   1.930       .  S
C565       C1361   1.418       .  A
C566        C567   1.411       .  A
C566       C1360   1.418       .  A
C566       Br575   1.931       .  S
C567       C1357   1.410       .  A
C567       Br571   1.932       .  S
C576        C581   1.416       .  A
C576       C1372   1.413       .  A
C577        C578   1.404       .  A
C577       C1371   1.413       .  A
C577       Br589   1.932       .  S
C578        C579   1.408       .  A
C578       Br593   1.932       .  S
C579       C1375   1.409       .  A
C579        C582   1.484       .  S
C580        C581   1.408   1_554  A
C580       C1374   1.409   1_554  A
C580       Br588   1.931       .  S
C581       Br592   1.933   1_556  S
C582        C583   1.406       .  A
C582       C1382   1.409       .  A
C583        C584   1.408       .  A
C583       Br594   1.931       .  S
C584        C585   1.419       .  A
C584       Br590   1.933       .  S
C585       C1381   1.415       .  A
C586        C587   1.407       .  A
C586       C1380   1.415   1_554  A
C586       Br595   1.933       .  S
C587       C1377   1.409   1_554  A
C587       Br591   1.933       .  S
C596        C597   1.416       .  A
C596        C601   1.417       .  A
C597        C598   1.411       .  A
C597       Br609   1.933       .  S
C598        C599   1.410       .  A
C598       Br613   1.930       .  S
C599        C600   1.409       .  A
C599        C602   1.495       .  S
C600        C601   1.413       .  A
C600       Br608   1.928       .  S
C601       Br612   1.931       .  S
C602        C603   1.412       .  A
C602        C607   1.408       .  A
C603        C604   1.417       .  A
C603       Br614   1.926       .  S
C604        C605   1.413       .  A
C604       Br610   1.926       .  S
C605        C606   1.413       .  A
C606        C607   1.407       .  A
C606       Br615   1.925       .  S
C607       Br611   1.933       .  S
C616        C617   1.412       .  A
C616        C621   1.411       .  A
C617        C618   1.414       .  A
C617       Br629   1.926       .  S
C618        C619   1.411       .  A
C618       Br633   1.928       .  S
C619        C620   1.409       .  A
C619        C622   1.492       .  S
C620        C621   1.407       .  A
C620       Br628   1.931       .  S
C621       Br632   1.929       .  S
C622        C623   1.404       .  A
C622        C627   1.406       .  A
C623        C624   1.413       .  A
C623       Br634   1.930       .  S
C624        C625   1.426       .  A
C624       Br630   1.935       .  S
C625        C626   1.427       .  A
C626        C627   1.411       .  A
C626       Br635   1.932       .  S
C627       Br631   1.936       .  S
C636        C637   1.409       .  A
C636        C641   1.407       .  A
C637        C638   1.407       .  A
C637       Br649   1.928       .  S
C638        C639   1.409       .  A
C638       Br653   1.929       .  S
C639        C640   1.410       .  A
C639        C642   1.480       .  S
C640        C641   1.402       .  A
C640       Br648   1.932       .  S
C641      Br1447   1.931       .  S
C642        C643   1.403       .  A
C642        C647   1.407       .  A
C643        C644   1.405       .  A
C643       Br654   1.934       .  S
C644        C645   1.424       .  A
C644       Br650   1.936       .  S
C645        C646   1.421       .  A
C646        C647   1.406       .  A
C646       Br655   1.937       .  S
C647       Br651   1.934       .  S
Br652      C1436   1.931       .  S
C656        C657   1.430       .  A
C656        C661   1.422       .  A
C657        C658   1.412       .  A
C657       Br669   1.935       .  S
C658        C659   1.403       .  A
C658       Br673   1.933       .  S
C659        C660   1.406       .  A
C659        C662   1.486       .  S
C660        C661   1.408       .  A
C660       Br668   1.934       .  S
C661       Br672   1.936       .  S
C662        C663   1.410       .  A
C662        C667   1.406       .  A
C663        C664   1.409       .  A
C663       Br674   1.929       .  S
C664        C665   1.412       .  A
C664       Br670   1.930       .  S
C665        C666   1.415       .  A
C666        C667   1.406       .  A
C666       Br675   1.933       .  S
C667       Br671   1.929       .  S
C676        C681   1.416   1_556  A
C676       C1472   1.413       .  A
C677        C678   1.408       .  A
C677       C1471   1.414       .  A
C677       Br689   1.926       .  S
C678       C1474   1.408       .  A
C678       Br693   1.932       .  S
C679        C680   1.407       .  A
C679       C1473   1.409   1_554  A
C679        C682   1.485       .  S
C680        C681   1.407       .  A
C680       Br688   1.931       .  S
C681       Br692   1.931       .  S
C682        C683   1.410       .  A
C682       C1482   1.407   1_554  A
C683        C684   1.410       .  A
C683       Br694   1.929       .  S
C684        C685   1.413       .  A
C684       Br690   1.926       .  S
C685       C1481   1.410       .  A
C686        C687   1.404       .  A
C686       C1480   1.410       .  A
C686       Br695   1.925       .  S
C687       C1477   1.407       .  A
C687       Br691   1.930       .  S
C696        C697   1.417       .  A
C696        C701   1.417   1_545  A
C697        C698   1.408       .  A
C697       Br709   1.927       .  S
C698        C699   1.407   1_545  A
C698       Br713   1.928       .  S
C699        C700   1.405       .  A
C699        C702   1.480       .  S
C700        C701   1.403       .  A
C700       Br708   1.932       .  S
C701       Br712   1.925       .  S
C702        C703   1.410       .  A
C702        C707   1.410       .  A
C703        C704   1.411       .  A
C703       Br714   1.927       .  S
C704        C705   1.410       .  A
C704       Br710   1.926       .  S
C705        C706   1.409       .  A
C706        C707   1.399       .  A
C706       Br715   1.925       .  S
C707       Br711   1.939       .  S
C716        C717   1.417       .  A
C716        C721   1.417       .  A
C717        C718   1.412       .  A
C717       Br729   1.925       .  S
C718        C719   1.407       .  A
C718       Br733   1.928       .  S
C719        C720   1.406       .  A
C719        C722   1.485       .  S
C720        C721   1.403       .  A
C720       Br728   1.936       .  S
C721       Br732   1.923       .  S
C722        C723   1.401       .  A
C722        C727   1.404       .  A
C723        C724   1.407       .  A
C723       Br734   1.937       .  S
C724        C725   1.435       .  A
C724       Br730   1.943       .  S
C725        C726   1.422   1_565  A
C726        C727   1.412   1_545  A
C726       Br735   1.923       .  S
C727       Br731   1.930   1_565  S
C736        C741   1.410       .  A
C736       C1532   1.413       .  A
C737        C738   1.407       .  A
C737       C1531   1.412   1_554  A
C737       Br749   1.930       .  S
C738       C1534   1.408   1_554  A
C738       Br753   1.929       .  S
C739        C740   1.410       .  A
C739       C1533   1.408       .  A
C739        C742   1.479       .  S
C740        C741   1.402       .  A
C740       Br748   1.934       .  S
C741       Br752   1.931       .  S
C742        C743   1.409       .  A
C742       C1542   1.407       .  A
C743        C744   1.406       .  A
C743       Br754   1.928       .  S
C744       C1540   1.411       .  A
C744       Br750   1.931       .  S
C745        C746   1.414   1_556  A
C745       C1539   1.411       .  A
C746        C747   1.402       .  A
C746       Br755   1.923       .  S
C747       C1537   1.407   1_554  A
C747       Br751   1.935       .  S
C756        C757   1.408       .  A
C756        C761   1.409       .  A
C757        C758   1.397       .  A
C757       Br769   1.926       .  S
C758        C759   1.405       .  A
C758       Br773   1.932       .  S
C759        C760   1.409       .  A
C759        C762   1.473       .  S
C760        C761   1.407       .  A
C760       Br768   1.927       .  S
C761       Br772   1.929   1_554  S
C762        C763   1.404       .  A
C762        C767   1.407       .  A
C763        C764   1.405       .  A
C763       Br774   1.931       .  S
C764        C765   1.418       .  A
C764       Br770   1.933       .  S
C765        C766   1.409       .  A
C766        C767   1.403       .  A
C766       Br775   1.925   1_565  S
C767       Br771   1.933       .  S
C776        C777   1.426       .  A
C776        C781   1.423       .  A
C777        C778   1.406       .  A
C777       Br789   1.937       .  S
C778        C779   1.401       .  A
C778       Br793   1.932       .  S
C779        C780   1.406       .  A
C779        C782   1.478       .  S
C780        C781   1.405       .  A
C780       Br788   1.936       .  S
C781       Br792   1.936       .  S
C782        C783   1.410       .  A
C782        C787   1.408       .  A
C783        C784   1.404       .  A
C783       Br794   1.931       .  S
C784        C785   1.407       .  A
C784       Br790   1.929       .  S
C785        C786   1.408       .  A
C786        C787   1.405       .  A
C786       Br795   1.928       .  S
C787       Br791   1.929       .  S
C796        C801   1.404       .  A
C796       C1540   1.481       .  S
C797        C798   1.401       .  A
C797        H802   1.083       .  S
C798        C799   1.397       .  A
C798       C1580   1.471       .  S
C799        H803   1.086       .  S
C800        C801   1.400       .  A
C800       C1551   1.469       .  S
C801        H804   1.080       .  S
C805        C806   1.402       .  A
C805       C1471   1.490       .  S
C806        C807   1.396       .  A
C806        H811   1.086       .  S
C807       C1500   1.479       .  S
C808        C809   1.407       .  A
C808        H812   1.084       .  S
C809        C810   1.412       .  A
C809       C1511   1.497       .  S
C810        H813   1.083       .  S
O814        C822   1.277   1_545  A
O814       Co834   2.015       .  S
O815        C823   1.251       .  A
O815       Co835   1.974       .  S
O816        C824   1.257       .  A
O816       Co836   1.965       .  S
O817        C825   1.248       .  A
O817       Co837   1.994       .  S
O818        C824   1.265   1_545  A
O818       Co835   2.010       .  S
O819        C825   1.244       .  A
O819       Co834   1.981       .  S
O820        C823   1.262       .  A
O820       Co837   2.021       .  S
O821        C822   1.266       .  A
O821       Co836   1.957       .  S
C822       C1571   1.493       .  S
C823       C1400   1.491       .  S
C824       C1560   1.475       .  S
C825       C1420   1.507       .  S
O826        C839   1.276       .  A
O826       Co834   1.895       .  S
O827        C840   1.260       .  A
O827       Co835   1.991       .  S
O828        C841   1.253   1_565  A
O828       Co836   1.981       .  S
O829        C842   1.291       .  A
O829       Co837   2.073       .  S
O830        C842   1.263       .  A
O830       Co835   1.885       .  S
O831        C841   1.264       .  A
O831       Co834   2.010       .  S
O832        C839   1.297       .  A
O832       Co837   2.074       .  S
O833        C840   1.269   1_565  A
O833       Co836   2.017       .  S
Co834       O838   1.924       .  S
Co835       O838   1.939       .  S
Co836       O838   2.078   1_565  S
Co837       O838   2.237       .  S
C839       C1451   1.503       .  S
C840       C1491   1.495       .  S
C841       C1520   1.509   1_545  S
C842       C1440   1.490       .  S
C843        C848   1.405       .  A
C843       C1371   1.485       .  S
C844        C845   1.405       .  A
C844        H849   1.078       .  S
C845        C846   1.399       .  A
C845       C1460   1.485       .  S
C846        H850   1.084       .  S
C847        C848   1.396       .  A
C847       C1431   1.473       .  S
C848        H851   1.092       .  S
C852        C853   1.410       .  A
C852       C1360   1.500       .  S
C853        C854   1.407       .  A
C853        H858   1.083       .  S
C854        C855   1.404       .  A
C854       C1391   1.497       .  S
C855        H859   1.086       .  S
C856        C857   1.407       .  A
C856       C1411   1.488       .  S
C857        H860   1.083       .  S
O861        C869   1.255       .  A
O861       Co881   1.965       .  S
O862        C870   1.266       .  A
O862       Co882   1.974       .  S
O863        C871   1.295       .  A
O863       Co883   2.111       .  S
O864        C872   1.272       .  A
O864       Co884   2.030   1_655  S
O865        C871   1.264       .  A
O865       Co882   1.883       .  S
O866        C872   1.254   1_455  A
O866       Co881   1.959       .  S
O867        C870   1.278   1_655  A
O867       Co884   2.033   1_655  S
O868        C869   1.265       .  A
O868       Co883   2.017       .  S
C869       C1331   1.483       .  S
C870       C1191   1.485   1_455  S
C871       C1320   1.493       .  S
C872       C1211   1.484       .  S
O873        C886   1.275       .  A
O873       Co881   2.027       .  S
O874        C887   1.292       .  A
O874       Co882   2.091       .  S
O875        C888   1.274       .  A
O875       Co883   1.985       .  S
O876        C889   1.249       .  A
O876       Co884   1.967       .  S
O877        C889   1.262       .  A
O877       Co882   2.010       .  S
O878        C888   1.277       .  A
O878       Co881   2.022       .  S
O879        C886   1.255       .  A
O879       Co884   1.933       .  S
O880        C887   1.267       .  A
O880       Co883   1.909       .  S
Co881       O885   2.008       .  S
Co882       O885   1.997       .  S
Co883       O885   2.013       .  S
Co884       O885   2.034       .  S
C886       C1260   1.477       .  S
C887       C1280   1.477       .  S
C888       C1300   1.495       .  S
C889       C1231   1.484       .  S
C890        C895   1.411       .  A
C890       C1180   1.497       .  S
C891        C892   1.402       .  A
C891        H896   1.079       .  S
C892       C1291   1.478       .  S
C893        C894   1.398       .  A
C893        H897   1.084       .  S
C894        C895   1.403       .  A
C894       C1271   1.482       .  S
C895        H898   1.083       .  S
C899        C904   1.417       .  A
C899       C1351   1.498       .  S
C900        C901   1.401       .  A
C900        H905   1.082       .  S
C901       C1251   1.480       .  S
C902        C903   1.393       .  A
C902        H906   1.088       .  S
C903        C904   1.407       .  A
C903       C1240   1.483       .  S
C904        H907   1.084       .  S
C908        C913   1.409       .  A
C908       C1160   1.492       .  S
C909        C910   1.397       .  A
C909        H914   1.091       .  S
C910       C1220   1.482       .  S
C911        C912   1.406       .  A
C911        H915   1.084       .  S
C912        C913   1.408       .  A
C912       C1200   1.494       .  S
C913        H916   1.080       .  S
C917        C922   1.404       .  A
C917       C1480   1.487       .  S
C918        C919   1.409       .  A
C918        H923   1.081       .  S
C919       C1340   1.498       .  S
C920        C921   1.399       .  A
C920        H924   1.088       .  S
C921        C922   1.402       .  A
C921       C1311   1.479       .  S
C922        H925   1.082       .  S
O926        C934   1.274       .  A
O926       Co946   2.025       .  S
O927        C935   1.260       .  A
O927       Co947   2.016       .  S
O928        C936   1.263       .  A
O928       Co948   1.873       .  S
O929        C937   1.257       .  A
O929       Co949   1.945       .  S
O930        C936   1.303       .  A
O930       Co947   2.130       .  S
O931        C937   1.270       .  A
O931       Co946   2.007       .  S
O932        C935   1.249       .  A
O932       Co949   1.964       .  S
O933        C934   1.266       .  A
O933       Co948   1.982       .  S
C934       C1140   1.502       .  S
C935        C991   1.483       .  S
C936       C1111   1.490       .  S
C937       C1011   1.485       .  S
O938        C951   1.259       .  A
O938       Co946   1.959       .  S
O939        C952   1.261       .  A
O939       Co947   1.867       .  S
O940        C953   1.264       .  A
O940       Co948   2.008       .  S
O941        C954   1.281       .  A
O941       Co949   2.040       .  S
O942        C954   1.273       .  A
O942       Co947   1.986       .  S
O943        C953   1.258       .  A
O943       Co946   1.969       .  S
O944        C951   1.271       .  A
O944       Co949   2.023       .  S
O945        C952   1.296       .  A
O945       Co948   2.114       .  S
Co946       O950   2.022       .  S
Co947       O950   2.006       .  S
Co948       O950   2.000       .  S
Co949       O950   2.023       .  S
C951       C1051   1.507       .  S
C952       C1071   1.479       .  S
C953       C1100   1.478       .  S
C954       C1031   1.495       .  S
C955        C960   1.407       .  A
C955       C1380   1.491       .  S
C956        C957   1.405       .  A
C956        H961   1.083       .  S
C957       C1131   1.489       .  S
C958        C959   1.401       .  A
C958        H962   1.083       .  S
C959        C960   1.400       .  A
C959       C1120   1.485       .  S
C960        H963   1.083       .  S
C964        C969   1.406       .  A
C964       C1171   1.475   1_556  S
C965        C966   1.402       .  A
C965        H970   1.080       .  S
C966       C1020   1.473       .  S
C967        C968   1.392       .  A
C967        H971   1.087       .  S
C968        C969   1.401       .  A
C968       C1000   1.468       .  S
C969        H972   1.083       .  S
C973        C978   1.409   1_554  A
C973       C1151   1.483       .  S
C974        C975   1.397       .  A
C974        H979   1.084       .  S
C975       C1091   1.474       .  S
C976        C977   1.401       .  A
C976        H980   1.080       .  S
C977        C978   1.404       .  A
C977       C1080   1.484       .  S
C978        H981   1.085       .  S
C982        C983   1.402       .  A
C982       C1531   1.478       .  S
C983        C984   1.395       .  A
C983        H988   1.085       .  S
C984        C985   1.398       .  A
C984       C1040   1.470       .  S
C985        H989   1.084       .  S
C986        C987   1.405       .  A
C986       C1060   1.482       .  S
C987        H990   1.085       .  S
C991        C992   1.414       .  A
C991        C996   1.421       .  A
C992        C993   1.408       .  A
C992      Br1004   1.929       .  S
C993        C994   1.408       .  A
C993      Br1008   1.931       .  S
C994        C995   1.402       .  A
C994        C997   1.477       .  S
C995        C996   1.403       .  A
C995      Br1003   1.932       .  S
C996      Br1007   1.936       .  S
C997        C998   1.408       .  A
C997       C1002   1.408       .  A
C998        C999   1.404       .  A
C998      Br1009   1.930       .  S
C999       C1000   1.408       .  A
C999      Br1005   1.930       .  S
C1000      C1001   1.408       .  A
C1001      C1002   1.404       .  A
C1001     Br1010   1.930       .  S
C1002     Br1006   1.930       .  S
C1011      C1012   1.420       .  A
C1011      C1016   1.423       .  A
C1012      C1013   1.402       .  A
C1012     Br1024   1.933       .  S
C1013      C1014   1.406       .  A
C1013     Br1028   1.938       .  S
C1014      C1015   1.403       .  A
C1014      C1017   1.473       .  S
C1015      C1016   1.405       .  A
C1015     Br1023   1.933       .  S
C1016     Br1027   1.937       .  S
C1017      C1018   1.407       .  A
C1017      C1022   1.407       .  A
C1018      C1019   1.400       .  A
C1018     Br1029   1.934       .  S
C1019      C1020   1.410       .  A
C1019     Br1025   1.927       .  S
C1020      C1021   1.413       .  A
C1021      C1022   1.404       .  A
C1021     Br1030   1.931       .  S
C1022     Br1026   1.931       .  S
C1031      C1032   1.418       .  A
C1031      C1036   1.415       .  A
C1032      C1033   1.406       .  A
C1032     Br1044   1.918       .  S
C1033      C1034   1.404       .  A
C1033     Br1048   1.935       .  S
C1034      C1035   1.402       .  A
C1034      C1037   1.479       .  S
C1035      C1036   1.408       .  A
C1035     Br1043   1.931       .  S
C1036     Br1047   1.909       .  S
C1037      C1038   1.409       .  A
C1037      C1042   1.408       .  A
C1038      C1039   1.402       .  A
C1038     Br1049   1.931       .  S
C1039      C1040   1.408       .  A
C1039     Br1045   1.932       .  S
C1040      C1041   1.407       .  A
C1041      C1042   1.406       .  A
C1041     Br1050   1.928       .  S
C1042     Br1046   1.927       .  S
C1051      C1052   1.428       .  A
C1051      C1056   1.425       .  A
C1052      C1053   1.410       .  A
C1052     Br1064   1.936       .  S
C1053      C1054   1.406       .  A
C1053     Br1068   1.934       .  S
C1054      C1055   1.404       .  A
C1054      C1057   1.488       .  S
C1055      C1056   1.407       .  A
C1055     Br1063   1.932       .  S
C1056     Br1067   1.936       .  S
C1057      C1058   1.409       .  A
C1057      C1062   1.411       .  A
C1058      C1059   1.403       .  A
C1058     Br1069   1.925       .  S
C1059      C1060   1.411       .  A
C1059     Br1065   1.932       .  S
C1060      C1061   1.411       .  A
C1061      C1062   1.410       .  A
C1061     Br1070   1.928       .  S
C1062     Br1066   1.929       .  S
C1071      C1072   1.412       .  A
C1071      C1076   1.415       .  A
C1072      C1073   1.411       .  A
C1072     Br1084   1.928       .  S
C1073      C1074   1.408       .  A
C1073     Br1088   1.927       .  S
C1074      C1075   1.407       .  A
C1074      C1077   1.481       .  S
C1075      C1076   1.402       .  A
C1075     Br1083   1.935       .  S
C1076     Br1087   1.931       .  S
C1077      C1078   1.408       .  A
C1077      C1082   1.407       .  A
C1078      C1079   1.409       .  A
C1078     Br1089   1.929       .  S
C1079      C1080   1.413       .  A
C1079     Br1085   1.929       .  S
C1080      C1081   1.414       .  A
C1081      C1082   1.404       .  A
C1082     Br1086   1.931       .  S
C1091      C1092   1.411       .  A
C1091      C1096   1.409       .  A
C1092      C1093   1.407       .  A
C1092     Br1104   1.930       .  S
C1093      C1094   1.408       .  A
C1093     Br1108   1.929       .  S
C1094      C1095   1.408       .  A
C1094      C1097   1.478       .  S
C1095      C1096   1.402       .  A
C1095     Br1103   1.931       .  S
C1096     Br1107   1.932       .  S
C1097      C1098   1.407       .  A
C1097      C1102   1.405       .  A
C1098      C1099   1.407       .  A
C1098     Br1109   1.929       .  S
C1099      C1100   1.413       .  A
C1099     Br1105   1.930       .  S
C1100      C1101   1.418       .  A
C1101      C1102   1.404       .  A
C1101     Br1110   1.934       .  S
C1102     Br1106   1.934       .  S
C1111      C1112   1.416       .  A
C1111      C1116   1.421       .  A
C1112      C1113   1.410       .  A
C1112     Br1124   1.929       .  S
C1113      C1114   1.407       .  A
C1113     Br1128   1.929       .  S
C1114      C1115   1.406       .  A
C1114      C1117   1.485       .  S
C1115      C1116   1.407       .  A
C1115     Br1123   1.934       .  S
C1116     Br1127   1.936       .  S
C1117      C1118   1.406       .  A
C1117      C1122   1.410       .  A
C1118      C1119   1.397       .  A
C1118     Br1129   1.923       .  S
C1119      C1120   1.412       .  A
C1119     Br1125   1.938       .  S
C1120      C1121   1.415       .  A
C1121      C1122   1.413       .  A
C1121     Br1130   1.928       .  S
C1122     Br1126   1.927       .  S
C1131      C1132   1.414       .  A
C1131      C1136   1.416       .  A
C1132      C1133   1.406       .  A
C1132     Br1144   1.931       .  S
C1133      C1134   1.408       .  A
C1133     Br1148   1.931       .  S
C1134      C1135   1.409       .  A
C1134      C1137   1.488       .  S
C1135      C1136   1.410       .  A
C1135     Br1143   1.930       .  S
C1136     Br1147   1.932       .  S
C1137      C1138   1.406       .  A
C1137      C1142   1.405       .  A
C1138      C1139   1.407       .  A
C1138     Br1149   1.934       .  S
C1139      C1140   1.421       .  A
C1139     Br1145   1.933       .  S
C1140      C1141   1.424       .  A
C1141      C1142   1.412       .  A
C1141     Br1150   1.931       .  S
C1142     Br1146   1.931       .  S
C1151      C1152   1.411   1_554  A
C1152      C1153   1.405       .  A
C1152     Br1164   1.932       .  S
C1153     Br1168   1.932       .  S
C1154      C1155   1.410       .  A
C1154      C1157   1.486       .  S
C1155      C1156   1.407       .  A
C1155     Br1163   1.931       .  S
C1156     Br1167   1.932       .  S
C1157      C1162   1.409       .  A
C1158      C1159   1.406       .  A
C1158     Br1169   1.932   1_554  S
C1159     Br1165   1.935   1_554  S
C1160      C1161   1.416       .  A
C1161      C1162   1.407       .  A
C1161     Br1170   1.931       .  S
C1162     Br1166   1.932       .  S
C1171      C1176   1.408   1_554  A
C1172      C1173   1.404       .  A
C1172     Br1184   1.927       .  S
C1173      C1174   1.410       .  A
C1173     Br1188   1.932       .  S
C1174      C1177   1.483       .  S
C1175      C1176   1.407       .  A
C1175     Br1183   1.928       .  S
C1176     Br1187   1.929       .  S
C1177      C1178   1.407       .  A
C1178      C1179   1.409       .  A
C1178     Br1189   1.931       .  S
C1179      C1180   1.420       .  A
C1179     Br1185   1.933       .  S
C1181      C1182   1.406       .  A
C1181     Br1190   1.935       .  S
C1182     Br1186   1.935       .  S
C1191      C1192   1.414       .  A
C1191      C1196   1.415       .  A
C1192      C1193   1.400       .  A
C1192     Br1204   1.923       .  S
C1193      C1194   1.406       .  A
C1193     Br1208   1.939       .  S
C1194      C1195   1.411       .  A
C1194      C1197   1.488       .  S
C1195      C1196   1.415       .  A
C1195     Br1203   1.927       .  S
C1196     Br1207   1.929   1_655  S
C1197      C1198   1.408       .  A
C1197      C1202   1.409       .  A
C1198      C1199   1.410       .  A
C1198     Br1209   1.930   1_655  S
C1199      C1200   1.418       .  A
C1199     Br1205   1.932       .  S
C1200      C1201   1.416       .  A
C1201      C1202   1.407       .  A
C1201     Br1210   1.932       .  S
C1202     Br1206   1.933       .  S
C1211      C1212   1.420       .  A
C1211      C1216   1.411       .  A
C1212      C1213   1.405       .  A
C1212     Br1224   1.937   1_655  S
C1213      C1214   1.406       .  A
C1213     Br1228   1.935       .  S
C1214      C1215   1.409       .  A
C1214      C1217   1.485       .  S
C1215      C1216   1.411       .  A
C1215     Br1223   1.927       .  S
C1216     Br1227   1.930       .  S
C1217      C1218   1.409       .  A
C1217      C1222   1.409       .  A
C1218      C1219   1.407       .  A
C1218     Br1229   1.928       .  S
C1219      C1220   1.411       .  A
C1220      C1221   1.411       .  A
C1221      C1222   1.408       .  A
C1221     Br1230   1.929       .  S
C1222     Br1226   1.929       .  S
C1231      C1232   1.418   1_455  A
C1231      C1236   1.411       .  A
C1232      C1233   1.406       .  A
C1232     Br1244   1.935       .  S
C1233      C1234   1.406       .  A
C1233     Br1248   1.931       .  S
C1234      C1235   1.411       .  A
C1234      C1237   1.487       .  S
C1235      C1236   1.410   1_655  A
C1235     Br1243   1.929   1_655  S
C1236     Br1247   1.931       .  S
C1237      C1238   1.410       .  A
C1237      C1242   1.409       .  A
C1238      C1239   1.411       .  A
C1238     Br1249   1.928       .  S
C1239      C1240   1.411       .  A
C1239     Br1245   1.928       .  S
C1240      C1241   1.412       .  A
C1241      C1242   1.406       .  A
C1241     Br1250   1.931       .  S
C1242     Br1246   1.931       .  S
C1251      C1252   1.416       .  A
C1251      C1256   1.412       .  A
C1252      C1253   1.401       .  A
C1253      C1254   1.405       .  A
C1253     Br1268   1.932   1_655  S
C1254      C1255   1.409       .  A
C1254      C1257   1.475       .  S
C1255      C1256   1.405       .  A
C1255     Br1263   1.933       .  S
C1256     Br1267   1.930       .  S
C1257      C1258   1.408       .  A
C1257      C1262   1.405       .  A
C1258      C1259   1.402       .  A
C1258     Br1269   1.935       .  S
C1259      C1260   1.413   1_655  A
C1259     Br1265   1.930       .  S
C1260      C1261   1.418       .  A
C1261      C1262   1.403   1_455  A
C1261     Br1270   1.935       .  S
C1262     Br1266   1.931       .  S
C1271      C1272   1.412       .  A
C1271      C1276   1.411       .  A
C1272      C1273   1.405       .  A
C1272     Br1284   1.932       .  S
C1273      C1274   1.410       .  A
C1273     Br1288   1.932       .  S
C1274      C1275   1.413       .  A
C1274      C1277   1.486       .  S
C1275      C1276   1.407       .  A
C1275     Br1283   1.932       .  S
C1276     Br1287   1.931       .  S
C1277      C1278   1.408       .  A
C1277      C1282   1.412       .  A
C1278      C1279   1.401       .  A
C1278     Br1289   1.936       .  S
C1279      C1280   1.409       .  A
C1279     Br1285   1.919       .  S
C1280      C1281   1.410       .  A
C1281      C1282   1.411       .  A
C1281     Br1290   1.927       .  S
C1282     Br1286   1.929       .  S
C1291      C1292   1.408       .  A
C1291      C1296   1.411       .  A
C1292      C1293   1.410       .  A
C1292     Br1304   1.927       .  S
C1293      C1294   1.410       .  A
C1293     Br1308   1.928       .  S
C1294      C1295   1.409       .  A
C1294      C1297   1.483       .  S
C1295      C1296   1.403       .  A
C1295     Br1303   1.933       .  S
C1296     Br1307   1.933       .  S
C1297      C1298   1.406       .  A
C1297      C1302   1.405       .  A
C1298      C1299   1.408       .  A
C1298     Br1309   1.931       .  S
C1299      C1300   1.417       .  A
C1299     Br1305   1.928       .  S
C1300      C1301   1.421       .  A
C1301      C1302   1.407       .  A
C1301     Br1310   1.927       .  S
C1302     Br1306   1.934       .  S
C1311      C1312   1.410       .  A
C1311      C1316   1.409       .  A
C1312      C1313   1.405       .  A
C1312     Br1324   1.928       .  S
C1313      C1314   1.407       .  A
C1313     Br1328   1.930       .  S
C1314      C1315   1.411       .  A
C1314      C1317   1.484       .  S
C1315      C1316   1.408       .  A
C1315     Br1323   1.930       .  S
C1316     Br1327   1.929       .  S
C1317      C1318   1.406       .  A
C1317      C1322   1.406       .  A
C1318      C1319   1.410       .  A
C1318     Br1329   1.931       .  S
C1319      C1320   1.422       .  A
C1319     Br1325   1.932       .  S
C1320      C1321   1.420       .  A
C1321      C1322   1.405       .  A
C1321     Br1330   1.937       .  S
C1322     Br1326   1.933       .  S
C1331      C1332   1.416       .  A
C1331      C1336   1.415       .  A
C1332      C1333   1.405       .  A
C1332     Br1344   1.926       .  S
C1333      C1334   1.407       .  A
C1333     Br1348   1.935       .  S
C1334      C1335   1.407       .  A
C1334      C1337   1.483       .  S
C1335      C1336   1.409       .  A
C1335     Br1343   1.928       .  S
C1336     Br1347   1.932       .  S
C1337      C1338   1.407       .  A
C1337      C1342   1.405       .  A
C1338      C1339   1.408       .  A
C1338     Br1349   1.931       .  S
C1339      C1340   1.418       .  A
C1339     Br1345   1.932       .  S
C1340      C1341   1.418       .  A
C1341      C1342   1.408       .  A
C1341     Br1350   1.923       .  S
C1342     Br1346   1.933       .  S
C1351      C1352   1.417       .  A
C1352      C1353   1.410       .  A
C1352     Br1364   1.933       .  S
C1353      C1354   1.410       .  A
C1353     Br1368   1.931       .  S
C1354      C1357   1.496       .  S
C1355      C1356   1.411       .  A
C1355     Br1363   1.931       .  S
C1356     Br1367   1.934       .  S
C1357      C1358   1.410       .  A
C1358      C1359   1.412       .  A
C1358     Br1369   1.931       .  S
C1359      C1360   1.417       .  A
C1359     Br1365   1.930       .  S
C1361      C1362   1.411       .  A
C1361     Br1370   1.931       .  S
C1362     Br1366   1.932       .  S
C1371      C1376   1.416       .  A
C1372      C1373   1.404       .  A
C1372     Br1384   1.932       .  S
C1373      C1374   1.408       .  A
C1373     Br1388   1.932       .  S
C1374      C1377   1.484       .  S
C1375      C1376   1.408       .  A
C1375     Br1383   1.931       .  S
C1376     Br1387   1.933       .  S
C1377      C1378   1.406       .  A
C1378      C1379   1.408       .  A
C1378     Br1389   1.931       .  S
C1379      C1380   1.419       .  A
C1379     Br1385   1.933       .  S
C1381      C1382   1.406       .  A
C1381     Br1390   1.933       .  S
C1382     Br1386   1.933       .  S
C1391      C1392   1.416       .  A
C1391      C1396   1.417       .  A
C1392      C1393   1.411       .  A
C1392     Br1404   1.933       .  S
C1393      C1394   1.410       .  A
C1393     Br1408   1.930       .  S
C1394      C1395   1.409       .  A
C1394      C1397   1.495       .  S
C1395      C1396   1.413       .  A
C1395     Br1403   1.928       .  S
C1396     Br1407   1.931       .  S
C1397      C1398   1.412       .  A
C1397      C1402   1.408       .  A
C1398      C1399   1.417       .  A
C1398     Br1409   1.926       .  S
C1399      C1400   1.413       .  A
C1399     Br1405   1.926       .  S
C1400      C1401   1.413       .  A
C1401      C1402   1.407       .  A
C1401     Br1410   1.925       .  S
C1402     Br1406   1.933       .  S
C1411      C1412   1.412       .  A
C1411      C1416   1.411       .  A
C1412      C1413   1.414       .  A
C1412     Br1424   1.926       .  S
C1413      C1414   1.411       .  A
C1413     Br1428   1.928       .  S
C1414      C1415   1.409       .  A
C1414      C1417   1.492       .  S
C1415      C1416   1.407       .  A
C1415     Br1423   1.931       .  S
C1416     Br1427   1.929       .  S
C1417      C1418   1.404       .  A
C1417      C1422   1.406       .  A
C1418      C1419   1.413       .  A
C1418     Br1429   1.930       .  S
C1419      C1420   1.426       .  A
C1419     Br1425   1.935       .  S
C1420      C1421   1.427       .  A
C1421      C1422   1.411       .  A
C1421     Br1430   1.932       .  S
C1422     Br1426   1.936       .  S
C1431      C1432   1.409       .  A
C1431      C1436   1.407       .  A
C1432      C1433   1.407       .  A
C1432     Br1444   1.928       .  S
C1433      C1434   1.409       .  A
C1433     Br1448   1.929       .  S
C1434      C1435   1.410       .  A
C1434      C1437   1.480       .  S
C1435      C1436   1.402       .  A
C1435     Br1443   1.932       .  S
C1437      C1438   1.403       .  A
C1437      C1442   1.407       .  A
C1438      C1439   1.405       .  A
C1438     Br1449   1.934       .  S
C1439      C1440   1.424       .  A
C1439     Br1445   1.936       .  S
C1440      C1441   1.421       .  A
C1441      C1442   1.406       .  A
C1441     Br1450   1.937       .  S
C1442     Br1446   1.934       .  S
C1451      C1452   1.430       .  A
C1451      C1456   1.422       .  A
C1452      C1453   1.412       .  A
C1452     Br1464   1.935       .  S
C1453      C1454   1.403       .  A
C1453     Br1468   1.933       .  S
C1454      C1455   1.406       .  A
C1454      C1457   1.486       .  S
C1455      C1456   1.408       .  A
C1455     Br1463   1.934       .  S
C1456     Br1467   1.936       .  S
C1457      C1458   1.410       .  A
C1457      C1462   1.406       .  A
C1458      C1459   1.409       .  A
C1458     Br1469   1.929       .  S
C1459      C1460   1.412       .  A
C1459     Br1465   1.930       .  S
C1460      C1461   1.415       .  A
C1461      C1462   1.406       .  A
C1461     Br1470   1.933       .  S
C1462     Br1466   1.930       .  S
C1471      C1476   1.416       .  A
C1472      C1473   1.408       .  A
C1472     Br1484   1.926       .  S
C1473     Br1488   1.932       .  S
C1474      C1475   1.407       .  A
C1474      C1477   1.485       .  S
C1475      C1476   1.407       .  A
C1475     Br1483   1.931       .  S
C1476     Br1487   1.931       .  S
C1477      C1478   1.410       .  A
C1478      C1479   1.410       .  A
C1478     Br1489   1.929       .  S
C1479      C1480   1.413       .  A
C1479     Br1485   1.926       .  S
C1481      C1482   1.404   1_554  A
C1481     Br1490   1.925   1_554  S
C1482     Br1486   1.930       .  S
C1491      C1492   1.417       .  A
C1491      C1496   1.417   1_545  A
C1492      C1493   1.408       .  A
C1492     Br1504   1.927       .  S
C1493      C1494   1.407   1_545  A
C1493     Br1508   1.928       .  S
C1494      C1495   1.406       .  A
C1494      C1497   1.481       .  S
C1495      C1496   1.403       .  A
C1495     Br1503   1.932       .  S
C1496     Br1507   1.925       .  S
C1497      C1498   1.410       .  A
C1497      C1502   1.410       .  A
C1498      C1499   1.411       .  A
C1498     Br1509   1.927       .  S
C1499      C1500   1.410       .  A
C1499     Br1505   1.926       .  S
C1500      C1501   1.409       .  A
C1501      C1502   1.399       .  A
C1501     Br1510   1.925       .  S
C1502     Br1506   1.939       .  S
C1511      C1512   1.417       .  A
C1511      C1516   1.417       .  A
C1512      C1513   1.412       .  A
C1512     Br1524   1.925       .  S
C1513      C1514   1.407       .  A
C1513     Br1528   1.928       .  S
C1514      C1515   1.407       .  A
C1514      C1517   1.486       .  S
C1515      C1516   1.403       .  A
C1515     Br1523   1.936       .  S
C1516     Br1527   1.923       .  S
C1517      C1518   1.401       .  A
C1517      C1522   1.404       .  A
C1518      C1519   1.407       .  A
C1518     Br1529   1.937       .  S
C1519      C1520   1.435       .  A
C1519     Br1525   1.943       .  S
C1520      C1521   1.422   1_565  A
C1521      C1522   1.412   1_545  A
C1521     Br1530   1.923       .  S
C1522     Br1526   1.930   1_565  S
C1531      C1536   1.410       .  A
C1532      C1533   1.407       .  A
C1532     Br1544   1.930       .  S
C1533     Br1548   1.929       .  S
C1534      C1535   1.410       .  A
C1534      C1537   1.479       .  S
C1535      C1536   1.402       .  A
C1535     Br1543   1.934       .  S
C1536     Br1547   1.931       .  S
C1537      C1538   1.409       .  A
C1538      C1539   1.407       .  A
C1538     Br1549   1.928       .  S
C1539     Br1545   1.930       .  S
C1540      C1541   1.414       .  A
C1541      C1542   1.402       .  A
C1541     Br1550   1.923       .  S
C1542     Br1546   1.935       .  S
C1551      C1552   1.408       .  A
C1551      C1556   1.409       .  A
C1552      C1553   1.397       .  A
C1552     Br1564   1.926       .  S
C1553      C1554   1.405       .  A
C1553     Br1568   1.932       .  S
C1554      C1555   1.409       .  A
C1554      C1557   1.472       .  S
C1555      C1556   1.406       .  A
C1555     Br1563   1.927       .  S
C1556     Br1567   1.929       .  S
C1557      C1558   1.404       .  A
C1557      C1562   1.407       .  A
C1558      C1559   1.405       .  A
C1558     Br1569   1.931       .  S
C1559      C1560   1.418       .  A
C1559     Br1565   1.933       .  S
C1560      C1561   1.409       .  A
C1561      C1562   1.403       .  A
C1561     Br1570   1.925   1_565  S
C1562     Br1566   1.933       .  S
C1571      C1572   1.426       .  A
C1571      C1576   1.423       .  A
C1572      C1573   1.407       .  A
C1572     Br1584   1.937       .  S
C1573      C1574   1.401       .  A
C1573     Br1588   1.932       .  S
C1574      C1575   1.406       .  A
C1574      C1577   1.478       .  S
C1575      C1576   1.405       .  A
C1575     Br1583   1.936       .  S
C1576     Br1587   1.936       .  S
C1577      C1578   1.410       .  A
C1577      C1582   1.408       .  A
C1578      C1579   1.404       .  A
C1578     Br1589   1.931       .  S
C1579      C1580   1.407       .  A
C1579     Br1585   1.929       .  S
C1580      C1581   1.408       .  A
C1581      C1582   1.405       .  A
C1581     Br1590   1.928       .  S
C1582     Br1586   1.929       .  S
