geometry optimzed in LAMMPS
_audit_creation_date              2020-11-30 
_audit_creation_method            'lammps2cif' 
_symmetry_space_group_name_H-M    'P1' 
_symmetry_Int_Tables_number       1 
_symmetry_cell_setting            triclinic 
loop_ 
_symmetry_equiv_pos_as_xyz 
  x,y,z 
_cell_length_a                    33.45116731188633 
_cell_length_b                    33.447896541470165 
_cell_length_c                    26.91058377241352 
_cell_angle_alpha                 89.9433217663994 
_cell_angle_beta                  90.00464084891749 
_cell_angle_gamma                 89.97970412143164 
loop_ 
_atom_site_label 
_atom_site_type_symbol 
_atom_site_fract_x 
_atom_site_fract_y 
_atom_site_fract_z 
_atom_site_charge 
N1          N  0.66837232  0.58525243  0.24999427    -0.27400
N2          N  0.63790871  0.56038523  0.24999375    -0.35250
C3          C  0.60368605  0.58066301  0.24999372     0.00950
C4          C  0.61215708  0.62099253  0.24999420     0.06970
C5          C  0.65384272  0.62316374  0.24999463    -0.06130
H6          H  0.57463595  0.56653082  0.24999329     0.07640
H7          H  0.67196879  0.64994396  0.24999494     0.08840
Cu8        Cu  0.64259091  0.49979159  0.24999335     0.44170
Cu9        Cu  0.72521106  0.55924237  0.24999410     0.41990
Cu10       Cu  0.72529799  0.44077403  0.25000605     0.43880
N11         N  0.63806329  0.43918597  0.24999666    -0.34780
N12         N  0.66864173  0.41444627  0.25000224    -0.29040
C13         C  0.65430488  0.37647244  0.25000536    -0.05140
C14         C  0.61260848  0.37846310  0.25000172     0.07080
C15         C  0.60393841  0.41876401  0.24999612     0.00880
H16         H  0.67256654  0.34977184  0.25001090     0.08530
H17         H  0.57481964  0.43277463  0.24999283     0.07610
N18         N  0.77414683  0.48012738  0.25000414    -0.36230
N19         N  0.77415594  0.51994235  0.24999604    -0.28410
C20         C  0.81227565  0.53279794  0.24999242    -0.03650
C21         C  0.83727837  0.49997749  0.25000031     0.04960
C22         C  0.81224235  0.46721465  0.25000807     0.03050
H23         H  0.82110161  0.56391986  0.24998681     0.08160
H24         H  0.82103160  0.43607670  0.25001450     0.06990
N25         N  0.37394297  0.70805510  0.24999821    -0.27400
N26         N  0.39878526  0.67754902  0.24999572    -0.35250
C27         C  0.37847652  0.64335885  0.24999718     0.00950
C28         C  0.33815998  0.65189681  0.25000082     0.06970
C29         C  0.33602313  0.69358623  0.25000133    -0.06130
H30         H  0.39258146  0.61428368  0.24999632     0.07640
H31         H  0.30926111  0.71175669  0.25000487     0.08840
Cu32       Cu  0.45939439  0.68206904  0.24999336     0.44170
Cu33       Cu  0.39993465  0.76487667  0.25000093     0.41990
Cu34       Cu  0.51835130  0.76472709  0.24999937     0.43880
N35         N  0.52001350  0.67752170  0.24999287    -0.34780
N36         N  0.54470660  0.70811952  0.24999453    -0.29040
C37         C  0.58269991  0.69383750  0.24999503    -0.05140
C38         C  0.58078599  0.65214539  0.24999366     0.07080
C39         C  0.54050050  0.64341714  0.24999236     0.00880
H40         H  0.60936054  0.71213615  0.24999705     0.08530
H41         H  0.52655080  0.61427672  0.24999155     0.07610
N42         N  0.47910343  0.81361460  0.25001756    -0.36230
N43         N  0.43929548  0.81373525  0.25001758    -0.28410
C44         C  0.42653647  0.85189642  0.25003295    -0.03650
C45         C  0.45942644  0.87678710  0.25004455     0.04960
C46         C  0.49211653  0.85166033  0.25003319     0.03050
H47         H  0.39543997  0.86082591  0.25003307     0.08160
H48         H  0.52327324  0.86034801  0.25003321     0.06990
N49         N  0.54555900  0.29103835  0.25001064    -0.27400
N50         N  0.52073346  0.32155399  0.25000852    -0.35250
C51         C  0.54107012  0.35573391  0.25000531     0.00950
C52         C  0.58139128  0.34716768  0.25000536     0.06970
C53         C  0.58348975  0.30547659  0.25000884    -0.06130
H54         H  0.52698764  0.38482028  0.25000299     0.07640
H55         H  0.61023530  0.28728310  0.25000922     0.08840
Cu56       Cu  0.46011843  0.31693533  0.25000924     0.44170
Cu57       Cu  0.51950459  0.23425861  0.25001218     0.41990
Cu58       Cu  0.40109624  0.23409675  0.25001507     0.43880
N59         N  0.39948823  0.32135533  0.25001197    -0.34780
N60         N  0.37478723  0.29075799  0.25001541    -0.29040
C61         C  0.33679792  0.30506281  0.25001604    -0.05140
C62         C  0.33873206  0.34675738  0.25001277     0.07080
C63         C  0.37901460  0.35546405  0.25001025     0.00880
H64         H  0.31012642  0.28677875  0.25001813     0.08530
H65         H  0.39297915  0.38459679  0.25000726     0.07610
N66         N  0.44048805  0.18527684  0.24999746    -0.36230
N67         N  0.48029643  0.18530482  0.24999698    -0.28410
C68         C  0.49322348  0.14720195  0.24998158    -0.03650
C69         C  0.46045479  0.12217259  0.24997036     0.04960
C70         C  0.42764371  0.14716835  0.24998204     0.03050
H71         H  0.52435706  0.13840943  0.24998092     0.08160
H72         H  0.39652363  0.13834402  0.24998218     0.06990
N73         N  0.25123324  0.41372899  0.25001434    -0.27400
N74         N  0.28170734  0.43858095  0.25001030    -0.35250
C75         C  0.31590857  0.41826928  0.25000867     0.00950
C76         C  0.30739736  0.37794209  0.25001189     0.06970
C77         C  0.26571730  0.37580549  0.25001537    -0.06130
H78         H  0.34497004  0.43237551  0.25000600     0.07640
H79         H  0.24756293  0.34904383  0.25001898     0.08840
Cu80       Cu  0.27704611  0.49920145  0.25000906     0.44170
Cu81       Cu  0.19446907  0.43975919  0.25001874     0.41990
Cu82       Cu  0.19441285  0.55828802  0.25000840     0.43880
N83         N  0.28158132  0.55983161  0.25000802    -0.34780
N84         N  0.25100404  0.58457075  0.25000761    -0.29040
C85         C  0.26530441  0.62254881  0.25000570    -0.05140
C86         C  0.30698863  0.62057428  0.25000468     0.07080
C87         C  0.31569170  0.58027497  0.25000636     0.00880
H88         H  0.24702377  0.64923697  0.25000435     0.08530
H89         H  0.34481879  0.56628345  0.25000584     0.07610
N90         N  0.14567043  0.51892745  0.25001128    -0.36230
N91         N  0.14564868  0.47911516  0.25001875    -0.28410
C92         C  0.10754153  0.46627154  0.25002274    -0.03650
C93         C  0.08258492  0.49910493  0.25001574     0.04960
C94         C  0.10759831  0.53186123  0.25000812     0.03050
H95         H  0.09870023  0.43515390  0.25002778     0.08160
H96         H  0.09881894  0.56300269  0.25000210     0.06990
O97         O  0.99356219  0.55947875  0.99997283    -0.73050
O98         O  0.99400628  0.43963856  0.00004998    -0.74030
O99         O  0.99365725  0.49961135  0.42535528    -0.62650
O100        O  0.99365661  0.49956769  0.07466799    -0.71060
O101        O  0.92719618  0.49936948  0.07451727    -0.70610
O102        O  0.92719681  0.49941434  0.42549222    -0.61870
O103        O  0.92759881  0.43940259  0.00004270    -0.74370
O104        O  0.92715283  0.55938425  0.99996682    -0.73150
Cu105      Cu  0.99606561  0.49957985  0.00001182     1.04560
Cu106      Cu  0.92495743  0.49938253  0.00000454     1.04330
C107        C  0.96033296  0.57828898  0.99996480     0.93150
C108        C  0.96088617  0.42065944  0.00005088     0.92290
C109        C  0.96037875  0.49953071  0.40210016     0.84430
C110        C  0.96037789  0.49948326  0.09791619     0.90710
O111        O  0.90012300  0.53300928  0.24995681    -0.73050
O112        O  0.02002198  0.53249892  0.24996693    -0.74030
O113        O  0.96019907  0.53275386  0.17536740    -0.62650
O114        O  0.96020042  0.53278312  0.32455347    -0.71060
O115        O  0.95996707  0.46631612  0.32463170    -0.70610
O116        O  0.95996535  0.46628687  0.17547995    -0.61870
O117        O  0.01982007  0.46607876  0.25005925    -0.74370
O118        O  0.89992545  0.46659932  0.25004950    -0.73150
Cu119      Cu  0.96012725  0.53510096  0.24995731     1.04560
Cu120      Cu  0.95989180  0.46398571  0.25005894     1.04330
C121        C  0.88115440  0.49986755  0.25000210     0.93150
C122        C  0.03876539  0.49922430  0.25001412     0.92290
C123        C  0.96020619  0.49951085  0.15210047     0.84430
C124        C  0.96020761  0.49954676  0.34791582     0.90710
O125        O  0.40084447  0.96596187  0.00005365    -0.73050
O126        O  0.52076410  0.96648608  0.00005471    -0.74030
O127        O  0.46071634  0.96622248  0.07464567    -0.62650
O128        O  0.46070993  0.96618965  0.42546580    -0.71060
O129        O  0.46041564  0.03265633  0.42538006    -0.70610
O130        O  0.46042239  0.03268916  0.07453760    -0.61870
O131        O  0.52051039  0.03289434  0.99996070    -0.74370
O132        O  0.40058816  0.03238036  0.99995966    -0.73150
Cu133      Cu  0.46078768  0.96387726  0.00005894     1.04560
Cu134      Cu  0.46049180  0.03499067  0.99995560     1.04330
C135        C  0.38186788  0.99910453  0.00000714     0.93150
C136        C  0.53951123  0.99975564  0.00000680     0.92290
C137        C  0.46044542  0.99946275  0.09791493     0.84430
C138        C  0.46043823  0.99942258  0.40209963     0.90710
O139        O  0.42656133  0.93968660  0.25003824    -0.73050
O140        O  0.42716834  0.05955093  0.24996743    -0.74030
O141        O  0.42699396  0.99965369  0.17534619    -0.62650
O142        O  0.42698939  0.99960508  0.32465914    -0.71060
O143        O  0.49344924  0.99927604  0.32452405    -0.70610
O144        O  0.49345380  0.99932559  0.17549963    -0.61870
O145        O  0.49357457  0.05933459  0.24997683    -0.74370
O146        O  0.49296802  0.93932891  0.25004660    -0.73150
Cu147      Cu  0.42458367  0.99963815  0.25000235     1.04560
Cu148      Cu  0.49568968  0.99930494  0.25001215     1.04330
C149        C  0.45965970  0.92064566  0.25004596     0.93150
C150        C  0.46041739  0.07830762  0.24996870     0.92290
C151        C  0.46027283  0.99948173  0.15209926     0.84430
C152        C  0.46026725  0.99942897  0.34791526     0.90710
N153        N  0.87523832  0.79098419  0.50000007    -0.27400
N154        N  0.90007239  0.82147273  0.00000160    -0.35250
C155        C  0.87974638  0.85567281  0.00000100     0.00950
C156        C  0.83942408  0.84713997  0.49999901     0.06970
C157        C  0.83731241  0.80545414  0.99999842    -0.06130
H158        H  0.89383397  0.88474671  0.00000165     0.07640
H159        H  0.81056320  0.78728436  0.49999621     0.08840
Cu160      Cu  0.96067759  0.81675099  0.00000305     0.44170
Cu161      Cu  0.90130198  0.73421547  0.99999757     0.41990
Cu162      Cu  0.01977144  0.73394844  0.50000100     0.43880
N163        N  0.02129738  0.82118317  0.00000562    -0.34780
N164        N  0.04603425  0.79059869  0.00000579    -0.29040
C165        C  0.08400631  0.80492014  0.00000782    -0.05140
C166        C  0.08201893  0.84661321  0.00000903     0.07080
C167        C  0.04172769  0.85530036  0.00000747     0.00880
H168        H  0.11069997  0.78664917  0.00000831     0.08530
H169        H  0.02772613  0.88442486  0.00000769     0.07610
N170        N  0.98033959  0.68520389  0.99998482    -0.36230
N171        N  0.94053102  0.68527738  0.49998351    -0.28410
C172        C  0.92758348  0.64719715  0.49997062    -0.03650
C173        C  0.96033695  0.62213765  0.99996237     0.04960
C174        C  0.99316416  0.64708250  0.99997277     0.03050
H175        H  0.89644510  0.63844329  0.49997058     0.08160
H176        H  0.02427896  0.63821714  0.99997462     0.06990
N177        N  0.16942366  0.91363574  0.00001534    -0.27400
N178        N  0.13891628  0.93847037  0.00001687    -0.35250
C179        C  0.10474300  0.91813687  0.00001496     0.00950
C180        C  0.11330925  0.87781566  0.00001201     0.06970
C181        C  0.15499011  0.87570395  0.00001231    -0.06130
H182        H  0.07566274  0.93222520  0.00001556     0.07640
H183        H  0.17317964  0.84895334  0.00001026     0.08840
Cu184      Cu  0.14347617  0.99909692  0.00002022     0.44170
Cu185      Cu  0.22617031  0.93966392  0.00001729     0.41990
Cu186      Cu  0.22612536  0.05814339  0.00001033     0.43880
N187        N  0.13893303  0.05973211  0.00001961    -0.34780
N188        N  0.16951071  0.08445069  0.00001537    -0.29120
C189        C  0.15520537  0.12243832  0.00001426    -0.05140
C190        C  0.11351968  0.12049361  0.00001785     0.07080
C191        C  0.10482020  0.08019919  0.00002123     0.00880
H192        H  0.17348412  0.14911463  0.00001032     0.08530
H193        H  0.07569298  0.06622801  0.00002387     0.07610
N194        N  0.27493086  0.01880575  0.00000896    -0.36230
N195        N  0.27498367  0.97899426  0.00001562    -0.28410
C196        C  0.31310181  0.96614970  0.00001711    -0.03650
C197        C  0.33803959  0.99898284  0.00000897     0.04960
C198        C  0.31299655  0.03173907  0.00000372     0.03050
H199        H  0.32196407  0.93503161  0.00002156     0.08160
H200        H  0.32175314  0.06288042  0.99999842     0.06990
N201        N  0.04656333  0.20802668  0.00001345    -0.27400
N202        N  0.02171920  0.17754113  0.00001605    -0.35250
C203        C  0.04202650  0.14333414  0.00001799     0.00950
C204        C  0.08234547  0.15184039  0.00001655     0.06970
C205        C  0.08448299  0.19352934  0.00001366    -0.06130
H206        H  0.02792071  0.11426946  0.00002014     0.07640
H207        H  0.11124554  0.21168010  0.00001224     0.08840
Cu208      Cu  0.96110916  0.18214232  0.00001634     0.44170
Cu209      Cu  0.02054627  0.26485313  0.00001280     0.41990
Cu210      Cu  0.90208901  0.26480772  0.00000723     0.43880
N211        N  0.90048991  0.17760425  0.00001141    -0.34780
N212        N  0.87576701  0.20819573  0.00000635    -0.29040
C213        C  0.83778655  0.19389924  0.00000306    -0.05140
C214        C  0.83974203  0.15220475  0.00000618     0.07080
C215        C  0.88003764  0.14349423  0.00001155     0.00880
H216        H  0.81110669  0.21218901  0.99999863     0.08530
H217        H  0.89402054  0.11436025  0.00001495     0.07610
N218        N  0.94136562  0.31365394  0.00002547    -0.36230
N219        N  0.98117478  0.31372870  0.00002754    -0.28410
C220        C  0.99395273  0.35187241  0.00004270    -0.03650
C221        C  0.96107829  0.37680257  0.00005164     0.04960
C222        C  0.92837299  0.35171746  0.00003920     0.03050
H223        H  0.02505410  0.36076305  0.00004390     0.08160
H224        H  0.89722130  0.36044539  0.00003719     0.06990
N225        N  0.75224860  0.08523015  0.49999764    -0.27400
N226        N  0.78275470  0.06039327  0.00000001    -0.35250
C227        C  0.81694372  0.08070390  0.00000348     0.00950
C228        C  0.80841080  0.12102628  0.50000334     0.06970
C229        C  0.76671883  0.12315697  0.99999946    -0.06130
H230        H  0.84601568  0.06659628  0.00000566     0.07640
H231        H  0.74854923  0.14992043  0.99999820     0.08840
Cu232      Cu  0.77818713  0.99979170  0.49999817     0.44170
Cu233      Cu  0.69543581  0.05916911  0.99999229     0.41990
Cu234      Cu  0.69547682  0.94075048  0.49999779     0.43880
N235        N  0.78273536  0.93918314  0.49999671    -0.34780
N236        N  0.75216587  0.91445182  0.49999644    -0.29040
C237        C  0.76651631  0.87647494  0.49999661    -0.05140
C238        C  0.80820910  0.87845246  0.49999721     0.07080
C239        C  0.81686848  0.91874864  0.49999717     0.00880
H240        H  0.74826492  0.84978041  0.49999701     0.08530
H241        H  0.84598436  0.93274565  0.49999798     0.07610
N242        N  0.64655696  0.98005166  0.50000059    -0.36230
N243        N  0.64650522  0.01986581  0.49999454    -0.28410
C244        C  0.60836885  0.03270496  0.49999483    -0.03650
C245        C  0.58339627  0.99987513  0.50000359     0.04960
C246        C  0.60847347  0.96712204  0.50000724     0.03050
H247        H  0.59950908  0.06382315  0.49999126     0.08160
H248        H  0.59971989  0.93598003  0.50001250     0.06990
N249        N  0.66837232  0.58525243  0.74999419    -0.27400
N250        N  0.63790872  0.56038523  0.74999375    -0.35250
C251        C  0.60368606  0.58066301  0.74999377     0.00950
C252        C  0.61215708  0.62099252  0.74999418     0.06970
C253        C  0.65384272  0.62316374  0.74999452    -0.06130
H254        H  0.57463595  0.56653082  0.74999341     0.07640
H255        H  0.67196880  0.64994395  0.74999477     0.08840
Cu256      Cu  0.64259092  0.49979159  0.74999340     0.44170
Cu257      Cu  0.72521106  0.55924236  0.74999396     0.41990
Cu258      Cu  0.72529799  0.44077403  0.75000602     0.43880
N259        N  0.63806329  0.43918597  0.74999669    -0.34780
N260        N  0.66864173  0.41444626  0.75000221    -0.29040
C261        C  0.65430489  0.37647243  0.75000531    -0.05140
C262        C  0.61260848  0.37846309  0.75000170     0.07080
C263        C  0.60393841  0.41876400  0.74999615     0.00880
H264        H  0.67256654  0.34977183  0.75001081     0.08530
H265        H  0.57481965  0.43277462  0.74999289     0.07610
N266        N  0.77414683  0.48012737  0.75000417    -0.36230
N267        N  0.77415595  0.51994234  0.74999602    -0.28410
C268        C  0.81227566  0.53279792  0.74999245    -0.03650
C269        C  0.83727837  0.49997747  0.75000044     0.04960
C270        C  0.81224235  0.46721464  0.75000820     0.03050
H271        H  0.82110162  0.56391985  0.74998679     0.08160
H272        H  0.82103160  0.43607669  0.75001467     0.06990
N273        N  0.37394298  0.70805510  0.74999823    -0.27400
N274        N  0.39878526  0.67754902  0.74999590    -0.35250
C275        C  0.37847652  0.64335885  0.74999741     0.00950
C276        C  0.33815998  0.65189681  0.75000090     0.06970
C277        C  0.33602314  0.69358623  0.75000128    -0.06130
H278        H  0.39258146  0.61428368  0.74999667     0.07640
H279        H  0.30926112  0.71175669  0.75000468     0.08840
Cu280      Cu  0.45939439  0.68206904  0.74999362     0.44170
Cu281      Cu  0.39993466  0.76487667  0.75000087     0.41990
Cu282      Cu  0.51835131  0.76472709  0.74999925     0.43880
N283        N  0.52001350  0.67752170  0.74999301    -0.34780
N284        N  0.54470661  0.70811952  0.74999447    -0.29040
C285        C  0.58269991  0.69383750  0.74999489    -0.05140
C286        C  0.58078600  0.65214538  0.74999367     0.07080
C287        C  0.54050050  0.64341714  0.74999254     0.00880
H288        H  0.60936054  0.71213614  0.74999675     0.08530
H289        H  0.52655080  0.61427671  0.74999187     0.07610
N290        N  0.47910344  0.81361460  0.75001775    -0.36230
N291        N  0.43929549  0.81373525  0.75001779    -0.28410
C292        C  0.42653648  0.85189642  0.75003334    -0.03650
C293        C  0.45942645  0.87678710  0.75004506     0.04960
C294        C  0.49211654  0.85166033  0.75003356     0.03050
H295        H  0.39543998  0.86082591  0.75003346     0.08160
H296        H  0.52327325  0.86034801  0.75003355     0.06990
N297        N  0.54555901  0.29103835  0.75001058    -0.27400
N298        N  0.52073346  0.32155398  0.75000843    -0.35250
C299        C  0.54107013  0.35573390  0.75000522     0.00950
C300        C  0.58139128  0.34716768  0.75000531     0.06970
C301        C  0.58348975  0.30547659  0.75000881    -0.06130
H302        H  0.52698764  0.38482028  0.75000287     0.07640
H303        H  0.61023530  0.28728310  0.75000923     0.08840
Cu304      Cu  0.46011843  0.31693533  0.75000913     0.44170
Cu305      Cu  0.51950459  0.23425861  0.75001209     0.41990
Cu306      Cu  0.40109624  0.23409675  0.75001504     0.43880
N307        N  0.39948824  0.32135533  0.75001194    -0.34780
N308        N  0.37478723  0.29075799  0.75001543    -0.29040
C309        C  0.33679792  0.30506281  0.75001612    -0.05140
C310        C  0.33873207  0.34675738  0.75001282     0.07080
C311        C  0.37901461  0.35546405  0.75001022     0.00880
H312        H  0.31012643  0.28677875  0.75001825     0.08530
H313        H  0.39297916  0.38459679  0.75000719     0.07610
N314        N  0.44048805  0.18527684  0.74999715    -0.36230
N315        N  0.48029643  0.18530482  0.74999665    -0.28410
C316        C  0.49322348  0.14720195  0.74998109    -0.03650
C317        C  0.46045479  0.12217259  0.74996980     0.04960
C318        C  0.42764371  0.14716835  0.74998159     0.03050
H319        H  0.52435706  0.13840943  0.74998045     0.08160
H320        H  0.39652363  0.13834402  0.74998178     0.06990
N321        N  0.25123325  0.41372899  0.75001442    -0.27400
N322        N  0.28170734  0.43858095  0.75001040    -0.35250
C323        C  0.31590858  0.41826928  0.75000877     0.00950
C324        C  0.30739737  0.37794209  0.75001197     0.06970
C325        C  0.26571731  0.37580549  0.75001544    -0.06130
H326        H  0.34497005  0.43237551  0.75000610     0.07640
H327        H  0.24756294  0.34904383  0.75001903     0.08840
Cu328      Cu  0.27704612  0.49920145  0.75000915     0.44170
Cu329      Cu  0.19446908  0.43975919  0.75001880     0.41990
Cu330      Cu  0.19441285  0.55828802  0.75000840     0.43880
N331        N  0.28158132  0.55983161  0.75000808    -0.34780
N332        N  0.25100404  0.58457075  0.75000764    -0.29040
C333        C  0.26530441  0.62254881  0.75000572    -0.05140
C334        C  0.30698863  0.62057428  0.75000473     0.07080
C335        C  0.31569169  0.58027498  0.75000642     0.00880
H336        H  0.24702377  0.64923697  0.75000436     0.08530
H337        H  0.34481879  0.56628346  0.75000593     0.07610
N338        N  0.14567044  0.51892745  0.75001123    -0.36230
N339        N  0.14564869  0.47911516  0.75001874    -0.28410
C340        C  0.10754153  0.46627153  0.75002268    -0.03650
C341        C  0.08258492  0.49910492  0.75001560     0.04960
C342        C  0.10759831  0.53186122  0.75000799     0.03050
H343        H  0.09870024  0.43515389  0.75002775     0.08160
H344        H  0.09881894  0.56300268  0.75000193     0.06990
O345        O  0.99356214  0.55947804  0.49997284    -0.73050
O346        O  0.99400600  0.43963787  0.50004995    -0.74030
O347        O  0.99365744  0.49961204  0.92535527    -0.62650
O348        O  0.99365642  0.49956697  0.57466798    -0.71060
O349        O  0.92719599  0.49936887  0.57451728    -0.70610
O350        O  0.92719700  0.49941492  0.92549223    -0.61870
O351        O  0.92759852  0.43940194  0.50004268    -0.74370
O352        O  0.92715278  0.55938368  0.49996683    -0.73150
Cu353      Cu  0.99606543  0.49957913  0.50001182     1.04560
Cu354      Cu  0.92495725  0.49938192  0.50000454     1.04330
C355        C  0.96033295  0.57828835  0.49996481     0.93150
C356        C  0.96088587  0.42065877  0.50005085     0.92290
C357        C  0.96037894  0.49953131  0.90210016     0.84430
C358        C  0.96037771  0.49948262  0.59791619     0.90710
O359        O  0.90012301  0.53300926  0.74995673    -0.73050
O360        O  0.02002198  0.53249890  0.74996660    -0.74030
O361        O  0.96019895  0.53275349  0.67536720    -0.62650
O362        O  0.96020054  0.53278344  0.82455327    -0.71060
O363        O  0.95996717  0.46631645  0.82463191    -0.70610
O364        O  0.95996525  0.46628651  0.67548015    -0.61870
O365        O  0.01982008  0.46607874  0.75005934    -0.74370
O366        O  0.89992545  0.46659930  0.75004982    -0.73150
Cu367      Cu  0.96012726  0.53510094  0.74995709     1.04560
Cu368      Cu  0.95989181  0.46398569  0.75005916     1.04330
C369        C  0.88115441  0.49986753  0.75000223     0.93150
C370        C  0.03876539  0.49922429  0.75001399     0.92290
C371        C  0.96020605  0.49951040  0.65210047     0.84430
C372        C  0.96020777  0.49954718  0.84791582     0.90710
O373        O  0.40084463  0.96596103  0.50005367    -0.73050
O374        O  0.52076426  0.96648583  0.50005470    -0.74030
O375        O  0.46071652  0.96622196  0.57464570    -0.62650
O376        O  0.46070977  0.96619017  0.92546582    -0.71060
O377        O  0.46041571  0.03265686  0.92538003    -0.70610
O378        O  0.46042233  0.03268864  0.57453758    -0.61870
O379        O  0.52051036  0.03289409  0.49996070    -0.74370
O380        O  0.40058814  0.03237952  0.49995968    -0.73150
Cu381      Cu  0.46078786  0.96387672  0.50005894     1.04560
Cu382      Cu  0.46049174  0.03499012  0.49995560     1.04330
C383        C  0.38186796  0.99910365  0.50000717     0.93150
C384        C  0.53951129  0.99975543  0.50000680     0.92290
C385        C  0.46044547  0.99946224  0.59791493     0.84430
C386        C  0.46043819  0.99942309  0.90209962     0.90710
O387        O  0.42656133  0.93968660  0.75003858    -0.73050
O388        O  0.42716835  0.05955093  0.74996706    -0.74030
O389        O  0.42699398  0.99965339  0.67534617    -0.62650
O390        O  0.42698938  0.99960538  0.82465912    -0.71060
O391        O  0.49344923  0.99927639  0.82452406    -0.70610
O392        O  0.49345382  0.99932524  0.67549964    -0.61870
O393        O  0.49357457  0.05933459  0.74997643    -0.74370
O394        O  0.49296803  0.93932891  0.75004701    -0.73150
Cu395      Cu  0.42458368  0.99963815  0.75000234     1.04560
Cu396      Cu  0.49568968  0.99930494  0.75001216     1.04330
C397        C  0.45965971  0.92064566  0.75004640     0.93150
C398        C  0.46041740  0.07830762  0.74996823     0.92290
C399        C  0.46027286  0.99948130  0.65209926     0.84430
C400        C  0.46026724  0.99942939  0.84791526     0.90710
N401        N  0.87523819  0.79098472  0.00000006    -0.27400
N402        N  0.90007244  0.82147225  0.50000170    -0.35250
C403        C  0.87974635  0.85567228  0.50000113     0.00950
C404        C  0.83942410  0.84714059  0.99999895     0.06970
C405        C  0.83731250  0.80545352  0.49999840    -0.06130
H406        H  0.89383388  0.88474622  0.50000185     0.07640
H407        H  0.81056306  0.78728506  0.99999630     0.08840
Cu408      Cu  0.96067764  0.81675056  0.50000320     0.44170
Cu409      Cu  0.90130235  0.73421501  0.49999750     0.41990
Cu410      Cu  0.01977117  0.73394907  0.00000114     0.43880
N411        N  0.02129742  0.82118264  0.50000573    -0.34780
N412        N  0.04603432  0.79059818  0.50000577    -0.29040
C413        C  0.08400636  0.80491968  0.50000777    -0.05140
C414        C  0.08201893  0.84661274  0.50000909     0.07080
C415        C  0.04172769  0.85529985  0.50000763     0.00880
H416        H  0.11070004  0.78664874  0.50000813     0.08530
H417        H  0.02772611  0.88442434  0.50000795     0.07610
N418        N  0.98033986  0.68520324  0.49998473    -0.36230
N419        N  0.94053075  0.68527794  0.99998357    -0.28410
C420        C  0.92758330  0.64719768  0.99997064    -0.03650
C421        C  0.96033707  0.62213703  0.49996236     0.04960
C422        C  0.99316434  0.64708181  0.49997271     0.03050
H423        H  0.89644494  0.63844374  0.99997057     0.08160
H424        H  0.02427912  0.63821638  0.49997455     0.06990
N425        N  0.16942362  0.91363523  0.50001541    -0.27400
N426        N  0.13891627  0.93846989  0.50001685    -0.35250
C427        C  0.10474298  0.91813642  0.50001491     0.00950
C428        C  0.11330921  0.87781520  0.50001203     0.06970
C429        C  0.15499005  0.87570345  0.50001239    -0.06130
H430        H  0.07566271  0.93222476  0.50001544     0.07640
H431        H  0.17317957  0.84895284  0.50001043     0.08840
Cu432      Cu  0.14347628  0.99909644  0.50002016     0.44170
Cu433      Cu  0.22617031  0.93966323  0.50001743     0.41990
Cu434      Cu  0.22612559  0.05814269  0.50001040     0.43880
N435        N  0.13893330  0.05973165  0.50001958    -0.34780
N436        N  0.16951101  0.08445018  0.50001539    -0.29120
C437        C  0.15520573  0.12243784  0.50001430    -0.05140
C438        C  0.11352004  0.12049319  0.50001785     0.07080
C439        C  0.10482050  0.08019879  0.50002119     0.00880
H440        H  0.17348453  0.14911411  0.50001042     0.08530
H441        H  0.07569327  0.06622763  0.50002379     0.07610
N442        N  0.27493098  0.01880491  0.50000906    -0.36230
N443        N  0.27498374  0.97899342  0.50001574    -0.28410
C444        C  0.31310186  0.96614880  0.50001721    -0.03650
C445        C  0.33803967  0.99898191  0.50000904     0.04960
C446        C  0.31299668  0.03173817  0.50000378     0.03050
H447        H  0.32196408  0.93503069  0.50002167     0.08160
H448        H  0.32175331  0.06287951  0.49999845     0.06990
N449        N  0.04656360  0.20802623  0.50001346    -0.27400
N450        N  0.02171952  0.17754064  0.50001615    -0.35250
C451        C  0.04202687  0.14333369  0.50001811     0.00950
C452        C  0.08234582  0.15183999  0.50001659     0.06970
C453        C  0.08448328  0.19352894  0.50001363    -0.06130
H454        H  0.02792110  0.11426900  0.50002032     0.07640
H455        H  0.11124581  0.21167974  0.50001213     0.08840
Cu456      Cu  0.96110948  0.18214168  0.50001646     0.44170
Cu457      Cu  0.02054632  0.26485261  0.50001272     0.41990
Cu458      Cu  0.90208907  0.26480692  0.50000722     0.43880
N459        N  0.90049025  0.17760344  0.50001152    -0.34780
N460        N  0.87576731  0.20819487  0.50000641    -0.29040
C461        C  0.83778688  0.19389833  0.50000311    -0.05140
C462        C  0.83974242  0.15220386  0.50000628     0.07080
C463        C  0.88003804  0.14349338  0.50001168     0.00880
H464        H  0.81110699  0.21218806  0.49999864     0.08530
H465        H  0.89402096  0.11435941  0.50001512     0.07610
N466        N  0.94136551  0.31365323  0.50002541    -0.36230
N467        N  0.98117467  0.31372807  0.50002746    -0.28410
C468        C  0.99395253  0.35187181  0.50004262    -0.03650
C469        C  0.96107803  0.37680190  0.50005158     0.04960
C470        C  0.92837279  0.35171673  0.50003916     0.03050
H471        H  0.02505387  0.36076253  0.50004380     0.08160
H472        H  0.89722108  0.36044458  0.50003719     0.06990
N473        N  0.75224829  0.08523082  0.99999754    -0.27400
N474        N  0.78275494  0.06039251  0.50000007    -0.35250
C475        C  0.81694402  0.08070304  0.50000353     0.00950
C476        C  0.80841041  0.12102712  0.00000326     0.06970
C477        C  0.76671923  0.12315625  0.49999957    -0.06130
H478        H  0.84601595  0.06659536  0.50000569     0.07640
H479        H  0.74854972  0.14991976  0.49999834     0.08840
Cu480      Cu  0.77818714  0.99979240  0.99999813     0.44170
Cu481      Cu  0.69543602  0.05916870  0.49999241     0.41990
Cu482      Cu  0.69547688  0.94075091  0.99999771     0.43880
N483        N  0.78273546  0.93918381  0.99999668    -0.34780
N484        N  0.75216598  0.91445247  0.99999638    -0.29040
C485        C  0.76651641  0.87647560  0.99999656    -0.05140
C486        C  0.80820919  0.87845312  0.99999716     0.07080
C487        C  0.81686858  0.91874931  0.99999714     0.00880
H488        H  0.74826502  0.84978107  0.99999694     0.08530
H489        H  0.84598447  0.93274630  0.99999796     0.07610
N490        N  0.64655692  0.98005191  0.00000052    -0.36230
N491        N  0.64650512  0.01986606  0.99999446    -0.28410
C492        C  0.60836873  0.03270515  0.99999477    -0.03650
C493        C  0.58339620  0.99987528  0.00000356     0.04960
C494        C  0.60847344  0.96712222  0.00000721     0.03050
H495        H  0.59950892  0.06382332  0.99999120     0.08160
H496        H  0.59971991  0.93598020  0.00001249     0.06990
loop_ 
_geom_bond_atom_site_label_1 
_geom_bond_atom_site_label_2 
_geom_bond_distance 
_geom_bond_site_symmetry_2 
_ccdc_geom_bond_type 
N1            N2   1.316       .  A
N1            C5   1.358       .  A
N1           Cu9   2.091       .  S
N2            C3   1.330       .  A
N2           Cu8   2.033       .  S
C3            C4   1.378       .  A
C3            H6   1.081       .  S
C4            C5   1.396       .  A
C4           C38   1.479       .  S
C5            H7   1.082       .  S
Cu8          N11   2.033       .  S
Cu9          N19   2.099       .  S
Cu10         N12   2.090       .  S
Cu10         N18   2.099       .  S
N11          N12   1.315       .  A
N11          C15   1.330       .  A
N12          C13   1.358       .  A
C13          C14   1.396       .  A
C13          H16   1.082       .  S
C14          C15   1.379       .  A
C14          C52   1.479       .  S
C15          H17   1.081       .  S
N18          N19   1.332       .  A
N18          C22   1.345       .  A
N19          C20   1.346       .  A
C20          C21   1.380       .  A
C20          H23   1.082       .  S
C21          C22   1.379       .  A
C21         C121   1.468       .  S
C22          H24   1.082       .  S
N25          N26   1.316       .  A
N25          C29   1.358       .  A
N25         Cu33   2.090       .  S
N26          C27   1.330       .  A
N26         Cu32   2.033       .  S
C27          C28   1.378       .  A
C27          H30   1.081       .  S
C28          C29   1.396       .  A
C28          C86   1.478       .  S
C29          H31   1.082       .  S
Cu32         N35   2.033       .  S
Cu33         N43   2.099       .  S
Cu34         N36   2.088       .  S
Cu34         N42   2.097       .  S
N35          N36   1.315       .  A
N35          C39   1.331       .  A
N36          C37   1.358       .  A
C37          C38   1.396       .  A
C37          H40   1.082       .  S
C38          C39   1.379       .  A
C39          H41   1.081       .  S
N42          N43   1.332       .  A
N42          C46   1.345       .  A
N43          C44   1.346       .  A
C44          C45   1.380       .  A
C44          H47   1.082       .  S
C45          C46   1.379       .  A
C45         C149   1.467       .  S
C46          H48   1.082       .  S
N49          N50   1.316       .  A
N49          C53   1.358       .  A
N49         Cu57   2.090       .  S
N50          C51   1.331       .  A
N50         Cu56   2.034       .  S
C51          C52   1.379       .  A
C51          H54   1.081       .  S
C52          C53   1.396       .  A
C53          H55   1.082       .  S
Cu56         N59   2.033       .  S
Cu57         N67   2.098       .  S
Cu58         N60   2.089       .  S
Cu58         N66   2.098       .  S
N59          N60   1.316       .  A
N59          C63   1.330       .  A
N60          C61   1.358       .  A
C61          C62   1.396       .  A
C61          H64   1.082       .  S
C62          C63   1.379       .  A
C62          C76   1.478       .  S
C63          H65   1.081       .  S
N66          N67   1.332       .  A
N66          C70   1.345       .  A
N67          C68   1.346       .  A
C68          C69   1.380       .  A
C68          H71   1.082       .  S
C69          C70   1.379       .  A
C69         C150   1.467       .  S
C70          H72   1.082       .  S
N73          N74   1.316       .  A
N73          C77   1.358       .  A
N73         Cu81   2.089       .  S
N74          C75   1.330       .  A
N74         Cu80   2.034       .  S
C75          C76   1.379       .  A
C75          H78   1.081       .  S
C76          C77   1.396       .  A
C77          H79   1.082       .  S
Cu80         N83   2.034       .  S
Cu81         N91   2.097       .  S
Cu82         N84   2.087       .  S
Cu82         N90   2.096       .  S
N83          N84   1.315       .  A
N83          C87   1.330       .  A
N84          C85   1.358       .  A
C85          C86   1.396       .  A
C85          H88   1.082       .  S
C86          C87   1.379       .  A
C87          H89   1.081       .  S
N90          N91   1.332       .  A
N90          C94   1.345       .  A
N91          C92   1.345       .  A
C92          C93   1.379       .  A
C92          H95   1.082       .  S
C93          C94   1.379       .  A
C93         C122   1.466       .  S
C94          H96   1.082       .  S
O97        Cu105   2.005   1_556  S
O97         C107   1.277       .  A
O98        Cu105   2.006       .  S
O98         C108   1.277       .  A
O99        Cu353   2.011       .  S
O99         C109   1.277       .  A
O100       Cu105   2.011       .  S
O100        C110   1.277       .  A
O101       Cu106   2.007       .  S
O101        C110   1.276       .  A
O102       Cu354   2.007       .  S
O102        C109   1.276       .  A
O103       Cu106   2.008       .  S
O103        C108   1.278       .  A
O104       Cu106   2.008   1_556  S
O104        C107   1.278       .  A
Cu105       O347   2.011   1_554  S
Cu105      Cu106   2.379       .  S
Cu106       O350   2.007   1_554  S
C107        C173   1.467       .  S
C108        C221   1.467       .  S
C109        C124   1.458       .  S
C110        C123   1.458       .  S
O111       Cu119   2.008       .  S
O111        C121   1.277       .  A
O112       Cu119   2.005   1_455  S
O112        C122   1.277       .  A
O113       Cu119   2.009       .  S
O113        C123   1.277       .  A
O114       Cu119   2.009       .  S
O114        C124   1.277       .  A
O115       Cu120   2.008       .  S
O115        C124   1.277       .  A
O116       Cu120   2.008       .  S
O116        C123   1.276       .  A
O117       Cu120   2.006   1_455  S
O117        C122   1.277       .  A
O118       Cu120   2.008       .  S
O118        C121   1.277       .  A
Cu119      Cu120   2.379       .  S
O125       Cu133   2.006       .  S
O125        C135   1.277       .  A
O126       Cu133   2.008       .  S
O126        C136   1.278       .  A
O127       Cu133   2.009       .  S
O127        C137   1.277       .  A
O128       Cu381   2.009       .  S
O128        C138   1.277       .  A
O129       Cu382   2.008       .  S
O129        C138   1.277   1_545  A
O130       Cu134   2.008   1_554  S
O130        C137   1.277   1_545  A
O131       Cu134   2.009       .  S
O131        C136   1.278   1_546  A
O132       Cu134   2.006       .  S
O132        C135   1.277   1_546  A
Cu133       O376   2.009   1_554  S
Cu133      Cu134   2.379   1_564  S
Cu134       O377   2.008       .  S
C135        C197   1.466       .  S
C136        C493   1.468       .  S
C137        C151   1.458       .  S
C138        C152   1.458       .  S
O139       Cu147   2.006       .  S
O139        C149   1.277       .  A
O140       Cu147   2.006   1_545  S
O140        C150   1.277       .  A
O141       Cu147   2.011       .  S
O141        C151   1.277       .  A
O142       Cu147   2.011       .  S
O142        C152   1.277       .  A
O143       Cu148   2.007       .  S
O143        C152   1.276       .  A
O144       Cu148   2.007       .  S
O144        C151   1.276       .  A
O145       Cu148   2.009   1_545  S
O145        C150   1.278       .  A
O146       Cu148   2.008       .  S
O146        C149   1.278       .  A
Cu147      Cu148   2.379       .  S
N153        N402   1.316       .  A
N153        C405   1.358       .  A
N153       Cu409   2.089       .  S
N154        N401   1.316       .  A
N154        C155   1.331       .  A
N154       Cu160   2.033       .  S
C155        C404   1.379   1_554  A
C155        H158   1.081       .  S
C156        C403   1.379       .  A
C156        C405   1.396       .  A
C156        C238   1.479       .  S
C157        N401   1.358   1_556  A
C157        C404   1.396       .  A
C157        H407   1.082       .  S
H159        C405   1.082       .  S
Cu160       N163   2.033   1_655  S
Cu161       N401   2.089   1_556  S
Cu161       N419   2.098       .  S
Cu162       N412   2.089       .  S
Cu162       N418   2.098   1_455  S
N163        N164   1.316       .  A
N163        C167   1.330       .  A
N164        C165   1.358       .  A
N164       Cu410   2.089       .  S
C165        C166   1.396       .  A
C165        H168   1.082       .  S
C166        C167   1.379       .  A
C166        C180   1.478       .  S
C167        H169   1.081       .  S
N170        N419   1.332       .  A
N170        C174   1.345       .  A
N170       Cu410   2.098   1_656  S
N171        N418   1.332       .  A
N171        C172   1.345       .  A
N171       Cu409   2.098       .  S
C172        C421   1.379       .  A
C172        H175   1.082       .  S
C173        C174   1.379       .  A
C173        C420   1.379       .  A
C174        H176   1.082   1_655  S
N177        N178   1.316       .  A
N177        C181   1.358       .  A
N177       Cu185   2.089       .  S
N178        C179   1.330       .  A
N178       Cu184   2.034       .  S
C179        C180   1.379       .  A
C179        H182   1.081       .  S
C180        C181   1.396       .  A
C181        H183   1.082       .  S
Cu184       N187   2.034   1_565  S
Cu185       N195   2.097       .  S
Cu186       N188   2.088       .  S
Cu186       N194   2.096       .  S
N187        N188   1.315       .  A
N187        C191   1.331       .  A
N188        C189   1.358       .  A
C189        C190   1.396       .  A
C189        H192   1.082       .  S
C190        C191   1.379       .  A
C190        C204   1.479       .  S
C191        H193   1.081       .  S
N194        N195   1.332   1_545  A
N194        C198   1.345       .  A
N195        C196   1.345       .  A
C196        C197   1.379       .  A
C196        H199   1.082       .  S
C197        C198   1.379   1_565  A
C198        H200   1.082   1_554  S
N201        N202   1.316       .  A
N201        C205   1.358       .  A
N201       Cu209   2.090       .  S
N202        C203   1.330       .  A
N202       Cu208   2.033   1_455  S
C203        C204   1.378       .  A
C203        H206   1.081       .  S
C204        C205   1.396       .  A
C205        H207   1.082       .  S
Cu208       N211   2.034       .  S
Cu209       N219   2.099   1_455  S
Cu210       N212   2.089       .  S
Cu210       N218   2.097       .  S
N211        N212   1.315       .  A
N211        C215   1.331       .  A
N212        C213   1.358       .  A
C213        C214   1.396       .  A
C213        H216   1.082   1_554  S
C214        C215   1.379       .  A
C214        C476   1.479       .  S
C215        H217   1.081       .  S
N218        N219   1.332       .  A
N218        C222   1.345       .  A
N219        C220   1.346       .  A
C220        C221   1.380       .  A
C220        H223   1.082   1_655  S
C221        C222   1.379       .  A
C222        H224   1.082       .  S
N225        N474   1.316       .  A
N225        C477   1.358       .  A
N225       Cu481   2.091       .  S
N226        N473   1.316   1_554  A
N226        C227   1.330       .  A
N226       Cu480   2.033   1_544  S
C227        C476   1.379       .  A
C227        H230   1.081       .  S
C228        C475   1.379       .  A
C228        C477   1.396       .  A
C228        C462   1.479       .  S
C229        N473   1.358       .  A
C229        C476   1.396   1_556  A
C229        H231   1.082       .  S
Cu232       N235   2.033       .  S
Cu232       N474   2.033   1_565  S
Cu233       N473   2.091       .  S
Cu233       N491   2.100       .  S
Cu234       N236   2.090       .  S
Cu234       N242   2.099       .  S
N235        N236   1.316       .  A
N235        C239   1.331       .  A
N236        C237   1.358       .  A
C237        C238   1.396       .  A
C237        H240   1.082       .  S
C238        C239   1.379       .  A
C239        H241   1.081       .  S
N242        N243   1.332   1_565  A
N242        C246   1.345       .  A
N243        C244   1.346       .  A
N243       Cu481   2.100       .  S
C244        C245   1.380   1_545  A
C244        H247   1.082       .  S
C245        C246   1.380       .  A
C245        C384   1.468       .  S
C246        H248   1.082       .  S
N249        N250   1.316       .  A
N249        C253   1.358       .  A
N249       Cu257   2.091       .  S
N250        C251   1.330       .  A
N250       Cu256   2.033       .  S
C251        C252   1.378       .  A
C251        H254   1.081       .  S
C252        C253   1.396       .  A
C252        C286   1.479       .  S
C253        H255   1.082       .  S
Cu256       N259   2.033       .  S
Cu257       N267   2.099       .  S
Cu258       N260   2.090       .  S
Cu258       N266   2.099       .  S
N259        N260   1.315       .  A
N259        C263   1.330       .  A
N260        C261   1.358       .  A
C261        C262   1.396       .  A
C261        H264   1.082       .  S
C262        C263   1.379       .  A
C262        C300   1.479       .  S
C263        H265   1.081       .  S
N266        N267   1.332       .  A
N266        C270   1.345       .  A
N267        C268   1.346       .  A
C268        C269   1.380       .  A
C268        H271   1.082       .  S
C269        C270   1.379       .  A
C269        C369   1.468       .  S
C270        H272   1.082       .  S
N273        N274   1.316       .  A
N273        C277   1.358       .  A
N273       Cu281   2.090       .  S
N274        C275   1.330       .  A
N274       Cu280   2.033       .  S
C275        C276   1.378       .  A
C275        H278   1.081       .  S
C276        C277   1.396       .  A
C276        C334   1.478       .  S
C277        H279   1.082       .  S
Cu280       N283   2.033       .  S
Cu281       N291   2.099       .  S
Cu282       N284   2.088       .  S
Cu282       N290   2.097       .  S
N283        N284   1.315       .  A
N283        C287   1.331       .  A
N284        C285   1.358       .  A
C285        C286   1.396       .  A
C285        H288   1.082       .  S
C286        C287   1.379       .  A
C287        H289   1.081       .  S
N290        N291   1.332       .  A
N290        C294   1.345       .  A
N291        C292   1.346       .  A
C292        C293   1.380       .  A
C292        H295   1.082       .  S
C293        C294   1.379       .  A
C293        C397   1.467       .  S
C294        H296   1.082       .  S
N297        N298   1.316       .  A
N297        C301   1.358       .  A
N297       Cu305   2.090       .  S
N298        C299   1.331       .  A
N298       Cu304   2.034       .  S
C299        C300   1.379       .  A
C299        H302   1.081       .  S
C300        C301   1.396       .  A
C301        H303   1.082       .  S
Cu304       N307   2.033       .  S
Cu305       N315   2.098       .  S
Cu306       N308   2.089       .  S
Cu306       N314   2.098       .  S
N307        N308   1.316       .  A
N307        C311   1.330       .  A
N308        C309   1.358       .  A
C309        C310   1.396       .  A
C309        H312   1.082       .  S
C310        C311   1.379       .  A
C310        C324   1.478       .  S
C311        H313   1.081       .  S
N314        N315   1.332       .  A
N314        C318   1.345       .  A
N315        C316   1.346       .  A
C316        C317   1.380       .  A
C316        H319   1.082       .  S
C317        C318   1.379       .  A
C317        C398   1.467       .  S
C318        H320   1.082       .  S
N321        N322   1.316       .  A
N321        C325   1.358       .  A
N321       Cu329   2.089       .  S
N322        C323   1.330       .  A
N322       Cu328   2.034       .  S
C323        C324   1.379       .  A
C323        H326   1.081       .  S
C324        C325   1.396       .  A
C325        H327   1.082       .  S
Cu328       N331   2.034       .  S
Cu329       N339   2.097       .  S
Cu330       N332   2.087       .  S
Cu330       N338   2.096       .  S
N331        N332   1.315       .  A
N331        C335   1.330       .  A
N332        C333   1.358       .  A
C333        C334   1.396       .  A
C333        H336   1.082       .  S
C334        C335   1.379       .  A
C335        H337   1.081       .  S
N338        N339   1.332       .  A
N338        C342   1.345       .  A
N339        C340   1.345       .  A
C340        C341   1.379       .  A
C340        H343   1.082       .  S
C341        C342   1.379       .  A
C341        C370   1.466       .  S
C342        H344   1.082       .  S
O345       Cu353   2.005       .  S
O345        C355   1.277       .  A
O346       Cu353   2.006       .  S
O346        C356   1.277       .  A
O347        C357   1.277       .  A
O348       Cu353   2.011       .  S
O348        C358   1.277       .  A
O349       Cu354   2.007       .  S
O349        C358   1.276       .  A
O350        C357   1.276       .  A
O351       Cu354   2.008       .  S
O351        C356   1.278       .  A
O352       Cu354   2.008       .  S
O352        C355   1.278       .  A
Cu353      Cu354   2.379       .  S
C355        C421   1.467       .  S
C356        C469   1.467       .  S
C357        C372   1.458       .  S
C358        C371   1.458       .  S
O359       Cu367   2.008       .  S
O359        C369   1.277       .  A
O360       Cu367   2.005   1_455  S
O360        C370   1.277       .  A
O361       Cu367   2.009       .  S
O361        C371   1.277       .  A
O362       Cu367   2.009       .  S
O362        C372   1.277       .  A
O363       Cu368   2.008       .  S
O363        C372   1.277       .  A
O364       Cu368   2.008       .  S
O364        C371   1.276       .  A
O365       Cu368   2.006   1_455  S
O365        C370   1.277       .  A
O366       Cu368   2.008       .  S
O366        C369   1.277       .  A
Cu367      Cu368   2.379       .  S
O373       Cu381   2.006       .  S
O373        C383   1.277       .  A
O374       Cu381   2.008       .  S
O374        C384   1.278       .  A
O375       Cu381   2.009       .  S
O375        C385   1.277       .  A
O376        C386   1.277       .  A
O377        C386   1.277   1_545  A
O378       Cu382   2.008       .  S
O378        C385   1.277   1_545  A
O379       Cu382   2.009       .  S
O379        C384   1.278   1_545  A
O380       Cu382   2.006       .  S
O380        C383   1.277   1_545  A
Cu381      Cu382   2.379   1_565  S
C383        C445   1.466       .  S
C385        C399   1.458       .  S
C386        C400   1.458       .  S
O387       Cu395   2.006       .  S
O387        C397   1.277       .  A
O388       Cu395   2.006   1_545  S
O388        C398   1.277       .  A
O389       Cu395   2.011       .  S
O389        C399   1.277       .  A
O390       Cu395   2.011       .  S
O390        C400   1.277       .  A
O391       Cu396   2.007       .  S
O391        C400   1.276       .  A
O392       Cu396   2.007       .  S
O392        C399   1.276       .  A
O393       Cu396   2.009   1_545  S
O393        C398   1.278       .  A
O394       Cu396   2.008       .  S
O394        C397   1.278       .  A
Cu395      Cu396   2.379       .  S
N402        C403   1.331       .  A
N402       Cu408   2.033       .  S
C403        H406   1.081       .  S
C404        C486   1.479       .  S
Cu408       N411   2.033   1_655  S
N411        N412   1.316       .  A
N411        C415   1.330       .  A
N412        C413   1.358       .  A
C413        C414   1.396       .  A
C413        H416   1.082       .  S
C414        C415   1.379       .  A
C414        C428   1.478       .  S
C415        H417   1.081       .  S
N418        C422   1.345       .  A
N419        C420   1.345       .  A
C420        H423   1.082       .  S
C421        C422   1.379       .  A
C422        H424   1.082   1_655  S
N425        N426   1.316       .  A
N425        C429   1.358       .  A
N425       Cu433   2.089       .  S
N426        C427   1.330       .  A
N426       Cu432   2.034       .  S
C427        C428   1.379       .  A
C427        H430   1.081       .  S
C428        C429   1.396       .  A
C429        H431   1.082       .  S
Cu432       N435   2.034   1_565  S
Cu433       N443   2.097       .  S
Cu434       N436   2.088       .  S
Cu434       N442   2.096       .  S
N435        N436   1.315       .  A
N435        C439   1.331       .  A
N436        C437   1.358       .  A
C437        C438   1.396       .  A
C437        H440   1.082       .  S
C438        C439   1.379       .  A
C438        C452   1.479       .  S
C439        H441   1.081       .  S
N442        N443   1.332   1_545  A
N442        C446   1.345       .  A
N443        C444   1.345       .  A
C444        C445   1.379       .  A
C444        H447   1.082       .  S
C445        C446   1.379   1_565  A
C446        H448   1.082       .  S
N449        N450   1.316       .  A
N449        C453   1.358       .  A
N449       Cu457   2.090       .  S
N450        C451   1.330       .  A
N450       Cu456   2.033   1_455  S
C451        C452   1.378       .  A
C451        H454   1.081       .  S
C452        C453   1.396       .  A
C453        H455   1.082       .  S
Cu456       N459   2.034       .  S
Cu457       N467   2.099   1_455  S
Cu458       N460   2.089       .  S
Cu458       N466   2.097       .  S
N459        N460   1.315       .  A
N459        C463   1.331       .  A
N460        C461   1.358       .  A
C461        C462   1.396       .  A
C461        H464   1.082       .  S
C462        C463   1.379       .  A
C463        H465   1.081       .  S
N466        N467   1.332       .  A
N466        C470   1.345       .  A
N467        C468   1.346       .  A
C468        C469   1.380       .  A
C468        H471   1.082   1_655  S
C469        C470   1.379       .  A
C470        H472   1.082       .  S
N474        C475   1.330       .  A
C475        H478   1.081       .  S
C477        H479   1.082       .  S
Cu480       N483   2.033       .  S
Cu482       N484   2.090       .  S
Cu482       N490   2.099   1_556  S
N483        N484   1.316       .  A
N483        C487   1.331       .  A
N484        C485   1.358       .  A
C485        C486   1.396       .  A
C485        H488   1.082       .  S
C486        C487   1.379       .  A
C487        H489   1.081       .  S
N490        N491   1.332   1_564  A
N490        C494   1.345       .  A
N491        C492   1.346       .  A
C492        C493   1.380   1_546  A
C492        H495   1.082       .  S
C493        C494   1.380       .  A
C494        H496   1.082       .  S
