geometry optimzed in LAMMPS
_audit_creation_date              2020-11-30 
_audit_creation_method            'lammps2cif' 
_symmetry_space_group_name_H-M    'P1' 
_symmetry_Int_Tables_number       1 
_symmetry_cell_setting            triclinic 
loop_ 
_symmetry_equiv_pos_as_xyz 
  x,y,z 
_cell_length_a                    39.33932086022106 
_cell_length_b                    39.24400811619406 
_cell_length_c                    39.35404906468352 
_cell_angle_alpha                 90.01811074864504 
_cell_angle_beta                  89.90024804255427 
_cell_angle_gamma                 90.02167486009252 
loop_ 
_atom_site_label 
_atom_site_type_symbol 
_atom_site_fract_x 
_atom_site_fract_y 
_atom_site_fract_z 
_atom_site_charge 
C1          C  0.99843557  0.25409353  0.73131794     0.00030
C2          C  0.99874574  0.23511170  0.76020990     0.00030
C3          C  0.25920205  0.00035379  0.73895868     0.00030
C4          C  0.23178449  0.00234646  0.76003464     0.00030
C5          C  0.99769791  0.74290377  0.26742306     0.00030
C6          C  0.99839882  0.76506381  0.24092708     0.00030
C7          C  0.72987204  0.99987789  0.25766710     0.00030
C8          C  0.75158487  0.99944236  0.23067479     0.00030
C9          C  0.72561370  0.25287492  0.00175664     0.00030
C10         C  0.75254929  0.23105976  0.00002787     0.00030
C11         C  0.25420635  0.73077550  0.00695804     0.00030
C12         C  0.23400351  0.75866559  0.00395220     0.00030
C13         C  0.73508361  0.73825591  0.00103406     0.00030
C14         C  0.75658884  0.76524865  0.99962849     0.00030
C15         C  0.73644954  0.99930893  0.73768400     0.00030
C16         C  0.76217551  0.00002041  0.76078790     0.00030
C17         C  0.99921986  0.74475812  0.73078856     0.00030
C18         C  0.99907750  0.77129888  0.75343029     0.00030
O19         O  0.16107354  0.87365828  0.91408639    -0.85880
O20         O  0.15464031  0.93231111  0.87564713    -0.82930
C21         C  0.14785925  0.92396345  0.84543841     0.97580
O22         O  0.11955636  0.91059767  0.83831920    -0.82960
O23         O  0.06140763  0.87310062  0.84790744    -0.85600
C24         C  0.07135795  0.84282440  0.85238527     1.02110
O25         O  0.08525552  0.83436742  0.88002688    -0.78370
O26         O  0.12268435  0.84203080  0.93887332    -0.78550
C27         C  0.15289076  0.84629639  0.92893674     1.02060
O28         O  0.12415025  0.90603585  0.96819596    -0.85880
O29         O  0.11365299  0.96289371  0.92746901    -0.82940
C30         C  0.10090072  0.97986979  0.90331525     0.97600
O31         O  0.09069213  0.96507601  0.87673590    -0.82970
O32         O  0.03395874  0.92526611  0.89038836    -0.85570
C33         C  0.01683014  0.90038954  0.90139190     1.02070
O34         O  0.03142892  0.87308650  0.91003808    -0.78390
O35         O  0.07195796  0.88607700  0.96631495    -0.78540
C36         C  0.09675455  0.89789541  0.98296996     1.02040
Cr37       Cr  0.13519578  0.91715719  0.92001863     1.93740
Cr38       Cr  0.07804479  0.91706232  0.86654835     1.93210
Cr39       Cr  0.07929199  0.86210362  0.92222570     1.39100
O40         O  0.09742460  0.89901950  0.90308564    -1.23630
O41         O  0.93537292  0.87378931  0.84671677    -0.85880
O42         O  0.87661938  0.91075006  0.83837381    -0.82930
C43         C  0.84892448  0.92522939  0.84568490     0.97580
O44         O  0.84327322  0.93464183  0.87587912    -0.82960
O45         O  0.83522646  0.87572795  0.91201633    -0.85600
C46         C  0.84247924  0.84755736  0.92552645     1.02110
O47         O  0.87223833  0.84192304  0.93605071    -0.78370
O48         O  0.91077888  0.83489028  0.87799747    -0.78550
C49         C  0.92521905  0.84352917  0.85067539     1.02060
O50         O  0.96251168  0.92524948  0.88985020    -0.85880
O51         O  0.90555183  0.96503518  0.87712301    -0.82940
C52         C  0.89576852  0.97968217  0.90401343     0.97600
O53         O  0.88431991  0.96256580  0.92866126    -0.82970
O54         O  0.87210528  0.90493701  0.96786296    -0.85570
C55         C  0.89914329  0.89586015  0.98269814     1.02070
O56         O  0.92379034  0.88388088  0.96590471    -0.78390
O57         O  0.96467122  0.87288279  0.90945284    -0.78540
C58         C  0.97939937  0.90031442  0.90107679     1.02040
Cr59       Cr  0.91845745  0.91733333  0.86610095     1.93740
Cr60       Cr  0.86190815  0.91783922  0.91988155     1.93210
Cr61       Cr  0.91654393  0.86154629  0.92088406     1.39100
O62         O  0.89924294  0.89916627  0.90260227    -1.23630
O63         O  0.05998341  0.87377266  0.15548404    -0.85880
O64         O  0.11720018  0.91165716  0.16517764    -0.82930
C65         C  0.14508074  0.92581809  0.15846774     0.97580
O66         O  0.15169666  0.93562806  0.12854484    -0.82960
O67         O  0.16032812  0.87745215  0.09052123    -0.85600
C68         C  0.15238296  0.85010134  0.07570294     1.02110
O69         O  0.12274118  0.84609708  0.06429775    -0.78370
O70         O  0.08523280  0.83664453  0.12238786    -0.78550
C71         C  0.07091105  0.84393110  0.15013572     1.02060
O72         O  0.03277185  0.92670296  0.11286092    -0.85880
O73         O  0.08877833  0.96677653  0.12685394    -0.82940
C74         C  0.09849184  0.98151227  0.09991442     0.97600
O75         O  0.11080707  0.96455751  0.07558568    -0.82970
O76         O  0.12339126  0.90794634  0.03532884    -0.85570
C77         C  0.09629799  0.89913257  0.02031296     1.02070
O78         O  0.07105668  0.88844322  0.03703234    -0.78390
O79         O  0.03065592  0.87449723  0.09317341    -0.78540
C80         C  0.01594482  0.90179638  0.10171603     1.02040
Cr81       Cr  0.07621645  0.91847542  0.13705108     1.93740
Cr82       Cr  0.13352053  0.91996465  0.08373531     1.93210
Cr83       Cr  0.07867988  0.86444955  0.08079299     1.39100
O84         O  0.09600573  0.90119718  0.10038723    -1.23630
O85         O  0.87628411  0.91471436  0.16474336    -0.85880
O86         O  0.93440328  0.87697377  0.15617278    -0.82930
C87         C  0.92336503  0.84697828  0.15309014     0.97580
O88         O  0.90863190  0.83822794  0.12601623    -0.82960
O89         O  0.87179437  0.84525276  0.06705167    -0.85600
C90         C  0.84155985  0.85091409  0.07617314     1.02110
O91         O  0.83405147  0.87899980  0.08983937    -0.78370
O92         O  0.84371920  0.93803783  0.12624906    -0.78550
C93         C  0.84839236  0.92817734  0.15642831     1.02060
O94         O  0.90698638  0.96834016  0.12558573    -0.85880
O95         O  0.96217223  0.92729588  0.11263018    -0.82940
C96         C  0.97875166  0.90191330  0.10201088     0.97600
O97         O  0.96385573  0.87440871  0.09444027    -0.82970
O98         O  0.92389876  0.88531372  0.03733754    -0.85570
C99         C  0.89935036  0.89692302  0.02017551     1.02070
O100        O  0.87264149  0.90737313  0.03478298    -0.78390
O101        O  0.88583290  0.96487773  0.07408435    -0.78540
C102        C  0.89828838  0.98223829  0.09810518     1.02040
Cr103      Cr  0.91830131  0.92041047  0.13675067     1.93740
Cr104      Cr  0.91579861  0.86395379  0.08271928     1.93210
Cr105      Cr  0.86213871  0.92082004  0.08257248     1.39100
O106        O  0.89892549  0.90197656  0.10038376    -1.23630
O107        O  0.87989670  0.08510697  0.83662591    -0.85880
O108        O  0.93840585  0.12141079  0.84723137    -0.82930
C109        C  0.92690390  0.15125456  0.84857951     0.97580
O110        O  0.91087363  0.16084894  0.87474244    -0.82960
O111        O  0.87218021  0.15648363  0.93348894    -0.85600
C112        C  0.84207110  0.15091354  0.92440478     1.02110
O113        O  0.83437423  0.12268057  0.91103423    -0.78370
O114        O  0.84291900  0.06436127  0.87302579    -0.78550
C115        C  0.85125550  0.07214072  0.84291478     1.02060
O116        O  0.90595546  0.03133206  0.87688303    -0.85880
O117        O  0.96227127  0.07086193  0.89263026    -0.82940
C118        C  0.97904991  0.09645090  0.90242348     0.97600
O119        O  0.96423781  0.12431007  0.90889299    -0.82970
O120        O  0.92190421  0.11514426  0.96439142    -0.85570
C121        C  0.89770159  0.10191467  0.98096178     1.02070
O122        O  0.87105491  0.09148698  0.96632357    -0.78390
O123        O  0.88230437  0.03455022  0.92714406    -0.78540
C124        C  0.89529525  0.01713072  0.90354542     1.02040
Cr125      Cr  0.91982470  0.07865049  0.86642480     1.93740
Cr126      Cr  0.91593886  0.13602144  0.91888325     1.93210
Cr127      Cr  0.86084232  0.07982711  0.91805953     1.39100
O128        O  0.89889141  0.09789897  0.90150610    -1.23630
O129        O  0.87735616  0.16550045  0.08746214    -0.85880
O130        O  0.93389174  0.15507609  0.12724464    -0.82930
C131        C  0.92439437  0.14844045  0.15721722     0.97580
O132        O  0.91051517  0.12019004  0.16382272    -0.82960
O133        O  0.87208472  0.06244153  0.15242152    -0.85600
C134        C  0.84209306  0.07277372  0.14826523     1.02110
O135        O  0.83433742  0.08824051  0.12123456    -0.78370
O136        O  0.84344427  0.12794437  0.06423514    -0.78550
C137        C  0.84947102  0.15803892  0.07352918     1.02060
O138        O  0.90919405  0.12797674  0.03337416    -0.85880
O139        O  0.96397033  0.11448431  0.07537646    -0.82940
C140        C  0.98029838  0.10097199  0.09945679     0.97600
O141        O  0.96505627  0.09018374  0.12554963    -0.82970
O142        O  0.92322962  0.03578735  0.10938708    -0.85570
C143        C  0.89851987  0.01945635  0.09695297     1.02070
O144        O  0.87165300  0.03453270  0.08812395    -0.78390
O145        O  0.88479466  0.07749739  0.03425382    -0.78540
C146        C  0.89831034  0.10182336  0.01815681     1.02040
Cr147      Cr  0.91933396  0.13741621  0.08218426     1.93740
Cr148      Cr  0.91633812  0.07902655  0.13459281     1.93210
Cr149      Cr  0.86190736  0.08345852  0.07871484     1.39100
O150        O  0.89937358  0.09990049  0.09826245    -1.23630
O151        O  0.15149383  0.06338915  0.87492952    -0.85880
O152        O  0.15966322  0.12211648  0.91156047    -0.82930
C153        C  0.15298705  0.14933333  0.92716352     0.97580
O154        O  0.12322458  0.15451896  0.93811658    -0.82960
O155        O  0.08458136  0.16263884  0.88085171    -0.85600
C156        C  0.06957218  0.15537041  0.85357650     1.02110
O157        O  0.05987165  0.12515877  0.84781761    -0.78370
O158        O  0.11826384  0.08827310  0.83820902    -0.78550
C159        C  0.14609210  0.07407457  0.84515008     1.02060
O160        O  0.11157280  0.03465621  0.92804730    -0.85880
O161        O  0.12432832  0.09197815  0.96763949    -0.82940
C162        C  0.09749104  0.10094774  0.98292122     0.97600
O163        O  0.07208320  0.11156959  0.96658980    -0.82970
O164        O  0.03090229  0.12402035  0.91113924    -0.85570
C165        C  0.01633219  0.09666530  0.90239742     1.02070
O166        O  0.03323491  0.07206042  0.89051786    -0.78390
O167        O  0.09003764  0.03239183  0.87663397    -0.78540
C168        C  0.10006862  0.01753856  0.90343687     1.02040
Cr169      Cr  0.13368552  0.07954090  0.91940008     1.93740
Cr170      Cr  0.07894262  0.13509757  0.92258209     1.93210
Cr171      Cr  0.07684081  0.08071237  0.86629236     1.39100
O172        O  0.09616637  0.09815132  0.90304057    -1.23630
O173        O  0.11926338  0.08821402  0.16435752    -0.85880
O174        O  0.06156724  0.12666418  0.15436563    -0.82930
C175        C  0.07287129  0.15653492  0.15098383     0.97580
O176        O  0.08821569  0.16481692  0.12405290    -0.82960
O177        O  0.12745236  0.15613776  0.06632070    -0.85600
C178        C  0.15730528  0.14877844  0.07567451     1.02110
O179        O  0.16333456  0.12043888  0.08946585    -0.78370
O180        O  0.15207598  0.06299316  0.12708439    -0.78550
C181        C  0.14669071  0.07318682  0.15706686     1.02060
O182        O  0.08913242  0.03415709  0.12628411    -0.85880
O183        O  0.03397358  0.07619353  0.11156410    -0.82940
C184        C  0.01770712  0.10125859  0.09959466     0.97600
O185        O  0.03295043  0.12847747  0.09139615    -0.82970
O186        O  0.07434378  0.11556706  0.03667032    -0.85570
C187        C  0.09825739  0.10210653  0.02007774     1.02070
O188        O  0.12494009  0.09200559  0.03474593    -0.78390
O189        O  0.10997951  0.03575809  0.07466874    -0.78540
C190        C  0.09834050  0.01903304  0.09948998     1.02040
Cr191      Cr  0.07764164  0.08263966  0.13608558     1.93740
Cr192      Cr  0.08204936  0.13813379  0.08116239     1.93210
Cr193      Cr  0.13443313  0.07953667  0.08275875     1.39100
O194        O  0.09791020  0.09999345  0.09977108    -1.23630
C195        C  0.49731948  0.25213683  0.27536063     0.00030
C196        C  0.49530185  0.27695074  0.25135993     0.00030
C197        C  0.25959806  0.23719356  0.49962233     0.00030
C198        C  0.23533016  0.26176977  0.49974879     0.00030
C199        C  0.23584388  0.49985516  0.26320166     0.00030
C200        C  0.25911787  0.49969912  0.23766726     0.00030
C201        C  0.24627403  0.22892752  0.99974389     0.00030
C202        C  0.26964675  0.25462501  0.99892649     0.00030
C203        C  0.23659419  0.99711273  0.23698679     0.00030
C204        C  0.26261775  0.99826958  0.25965916     0.00030
C205        C  0.49762455  0.75879089  0.73456809     0.00030
C206        C  0.49781068  0.73839676  0.76235402     0.00030
C207        C  0.22471245  0.74956846  0.50001994     0.00030
C208        C  0.25034902  0.77284939  0.49929886     0.00030
C209        C  0.50005441  0.73612954  0.24117763     0.00030
C210        C  0.49918447  0.76378822  0.26199804     0.00030
O211        O  0.33451695  0.90995803  0.37894131    -0.85880
O212        O  0.34282133  0.87210634  0.43681557    -0.82930
C213        C  0.34970565  0.84191790  0.42825631     0.97580
O214        O  0.37837528  0.83443304  0.41601881    -0.82960
O215        O  0.43533758  0.84417272  0.37742071    -0.85600
C216        C  0.42435179  0.84797720  0.34753092     1.02110
O217        O  0.40954765  0.87527761  0.33940186    -0.78370
O218        O  0.37268116  0.93443023  0.34708142    -0.78550
C219        C  0.34259484  0.92435317  0.35147161     1.02060
O220        O  0.37210889  0.96486505  0.41039103    -0.85880
O221        O  0.38327453  0.92430287  0.46629097    -0.82940
C222        C  0.39715490  0.90094610  0.48337356     0.97600
O223        O  0.40823784  0.87429389  0.46931446    -0.82970
O224        O  0.46337795  0.88781423  0.42794261    -0.85570
C225        C  0.47998174  0.89827431  0.40254243     1.02070
O226        O  0.46479188  0.90637496  0.37547219    -0.78390
O227        O  0.42360962  0.96283309  0.38833456    -0.78540
C228        C  0.39905570  0.97955495  0.40076058     1.02040
Cr229      Cr  0.36143932  0.91645166  0.42154823     1.93740
Cr230      Cr  0.41955989  0.86333261  0.42130342     1.93210
Cr231      Cr  0.41635949  0.91811872  0.36579597     1.39100
O232        O  0.39926105  0.89955714  0.40326107    -1.23630
O233        O  0.33161918  0.11679560  0.41241147    -0.85880
O234        O  0.34352845  0.06036140  0.37318531    -0.82930
C235        C  0.34880490  0.07121880  0.34338991     0.97580
O236        O  0.37613157  0.08647586  0.33631025    -0.82960
O237        O  0.43336330  0.12580718  0.34568405    -0.85600
C238        C  0.42238723  0.15560159  0.35052046     1.02110
O239        O  0.40617331  0.16234461  0.37735778    -0.78370
O240        O  0.36777311  0.15274725  0.43491389    -0.78550
C241        C  0.33789058  0.14514005  0.42607824     1.02060
O242        O  0.37098511  0.08755540  0.46643267    -0.85880
O243        O  0.38667705  0.03322201  0.42484430    -0.82940
C244        C  0.39920443  0.01684901  0.40027290     0.97600
O245        O  0.40776525  0.03191180  0.37325802    -0.82970
O246        O  0.46136567  0.07444994  0.38840984    -0.85570
C247        C  0.47725831  0.09977111  0.40008932     1.02070
O248        O  0.46165799  0.12663842  0.40863235    -0.78390
O249        O  0.42062251  0.11323961  0.46425057    -0.78540
C250        C  0.39710087  0.09919964  0.48104295     1.02040
Cr251      Cr  0.36130046  0.07624182  0.41786474     1.93740
Cr252      Cr  0.41788894  0.08095473  0.36399300     1.93210
Cr253      Cr  0.41283603  0.13550928  0.41971109     1.39100
O254        O  0.39742145  0.09745136  0.40078531    -1.23630
O255        O  0.56455737  0.84408509  0.37495217    -0.85880
O256        O  0.62267073  0.83753895  0.41400969    -0.82930
C257        C  0.64924537  0.84670440  0.42952371     0.97580
O258        O  0.65138163  0.87645849  0.44120449    -0.82960
O259        O  0.66274124  0.91525842  0.38382607    -0.85600
C260        C  0.65581514  0.92826743  0.35531867     1.02110
O261        O  0.62561653  0.93627639  0.34787145    -0.78370
O262        O  0.58784763  0.87862526  0.33812794    -0.78550
C263        C  0.57420336  0.85042966  0.34507638     1.02060
O264        O  0.53390967  0.88503385  0.42640457    -0.85880
O265        O  0.58859423  0.87330897  0.46821252    -0.82940
C266        C  0.59554746  0.90085634  0.48321077     0.97600
O267        O  0.60650177  0.92630890  0.46692182    -0.82970
O268        O  0.62252264  0.96820843  0.41257560    -0.85570
C269        C  0.59634883  0.98256261  0.40107530     1.02070
O270        O  0.57264991  0.96532197  0.38792908    -0.78390
O271        O  0.53243268  0.90836055  0.37559996    -0.78540
C272        C  0.51740797  0.89799868  0.40216507     1.02040
Cr273      Cr  0.57903173  0.86324272  0.41950296     1.93740
Cr274      Cr  0.63268829  0.92004320  0.42432631     1.93210
Cr275      Cr  0.58087513  0.92051345  0.36566387     1.39100
O276        O  0.59733464  0.90149271  0.40317373    -1.23630
O277        O  0.62246428  0.15531904  0.43536907    -0.85880
O278        O  0.58408162  0.16462820  0.37811281    -0.82930
C279        C  0.56909746  0.15778601  0.35062001     0.97580
O280        O  0.55793793  0.12802105  0.34538658    -0.82960
O281        O  0.61424540  0.08887109  0.33403048    -0.85600
C282        C  0.64225279  0.07461910  0.33999082     1.02110
O283        O  0.65019925  0.06602865  0.36987049    -0.78370
O284        O  0.65963357  0.12417465  0.40821379    -0.78550
C285        C  0.65214107  0.15122323  0.42383595     1.02060
O286        O  0.57149761  0.11241329  0.46359133    -0.85880
O287        O  0.52947019  0.12738762  0.40864073    -0.82940
C288        C  0.51447367  0.10022953  0.40018794     0.97600
O289        O  0.53104263  0.07535081  0.38873301    -0.82970
O290        O  0.58510972  0.03434845  0.37320591    -0.85570
C291        C  0.59611329  0.01993029  0.39969029     1.02070
O292        O  0.61038114  0.03687419  0.42296230    -0.78390
O293        O  0.62380560  0.09273384  0.46392678    -0.78540
C294        C  0.59692676  0.10111980  0.47962248     1.02040
Cr295      Cr  0.57809332  0.13684197  0.41978696     1.93740
Cr296      Cr  0.57383576  0.08301664  0.36338875     1.93210
Cr297      Cr  0.63287780  0.08146740  0.41501796     1.39100
O298        O  0.59486442  0.10016474  0.39949318    -1.23630
O299        O  0.62276765  0.84568321  0.56450639    -0.85880
O300        O  0.58537138  0.83789467  0.62341912    -0.82930
C301        C  0.57061178  0.84595196  0.65078905     0.97580
O302        O  0.55972582  0.87588371  0.65489590    -0.82960
O303        O  0.61755380  0.91364338  0.66459644    -0.85600
C304        C  0.64578647  0.92713902  0.65757581     1.02110
O305        O  0.65263571  0.93592026  0.62744240    -0.78370
O306        O  0.66073933  0.87768302  0.58912102    -0.78550
C307        C  0.65275618  0.85004138  0.57473543     1.02060
O308        O  0.57169327  0.88814510  0.53691063    -0.85880
O309        O  0.53063154  0.87506153  0.59291013    -0.82940
C310        C  0.51571547  0.90235635  0.60118234     0.97600
O311        O  0.53259457  0.92754163  0.61188835    -0.82970
O312        O  0.58892262  0.96797321  0.62586983    -0.85570
C313        C  0.59911179  0.98249046  0.59908710     1.02070
O314        O  0.61173823  0.96542456  0.57503110    -0.78390
O315        O  0.62338198  0.90962432  0.53471373    -0.78540
C316        C  0.59612760  0.90078803  0.52026282     1.02040
Cr317      Cr  0.57896560  0.86482546  0.58100707     1.93740
Cr318      Cr  0.57636262  0.91992089  0.63619337     1.93210
Cr319      Cr  0.63398814  0.92057703  0.58294295     1.39100
O320        O  0.59633141  0.90204151  0.59983608    -1.23630
O321        O  0.62104212  0.09029825  0.66191264    -0.85880
O322        O  0.56304944  0.12856567  0.65376975    -0.82930
C323        C  0.57216902  0.15864784  0.64707003     0.97580
O324        O  0.58598544  0.16547869  0.61893231    -0.82960
O325        O  0.62493932  0.15519172  0.56209962    -0.85600
C326        C  0.65483110  0.14958481  0.57244204     1.02110
O327        O  0.66216309  0.12188842  0.58679101    -0.78370
O328        O  0.65316970  0.06409935  0.62481467    -0.78550
C329        C  0.64798164  0.07444669  0.65478303     1.02060
O330        O  0.59014107  0.03528653  0.62533050    -0.85880
O331        O  0.53409541  0.07621497  0.61297859    -0.82940
C332        C  0.51739400  0.10004682  0.59938397     0.97600
O333        O  0.53195961  0.12667600  0.58879045    -0.82970
O334        O  0.57284457  0.11261410  0.53391187    -0.85570
C335        C  0.59752193  0.10101915  0.51706368     1.02070
O336        O  0.62458392  0.09207951  0.53191995    -0.78390
O337        O  0.61045737  0.03625767  0.57328454    -0.78540
C338        C  0.59904040  0.01991924  0.59846802     1.02040
Cr339      Cr  0.57865793  0.08385945  0.63530657     1.93740
Cr340      Cr  0.58032384  0.13686468  0.57760180     1.93210
Cr341      Cr  0.63440594  0.08025037  0.58048978     1.39100
O342        O  0.59752899  0.10018495  0.59766105    -1.23630
O343        O  0.41051605  0.12336644  0.66313659    -0.85880
O344        O  0.37198948  0.06545498  0.65462917    -0.82930
C345        C  0.34199964  0.07562189  0.64981608     0.97580
O346        O  0.33452801  0.09059964  0.62251068    -0.82960
O347        O  0.34402813  0.12926655  0.56505231    -0.85600
C348        C  0.35179476  0.15940293  0.57315874     1.02110
O349        O  0.38025139  0.16601071  0.58623052    -0.78370
O350        O  0.43662271  0.15490734  0.62539010    -0.78550
C351        C  0.42502221  0.15086470  0.65501258     1.02060
O352        O  0.46509042  0.09108736  0.62659515    -0.85880
O353        O  0.42269858  0.03649520  0.61313025    -0.82940
C354        C  0.39798148  0.02027779  0.60062289     0.97600
O355        O  0.37140609  0.03545957  0.59077839    -0.82970
O356        O  0.38370680  0.07657959  0.53524354    -0.85570
C357        C  0.39777741  0.09999684  0.51832416     1.02070
O358        O  0.40959158  0.12613404  0.53278821    -0.78390
O359        O  0.46384853  0.11102028  0.57457066    -0.78540
C360        C  0.48019675  0.09936891  0.59952521     1.02040
Cr361      Cr  0.41625786  0.08084175  0.63613191     1.93740
Cr362      Cr  0.36171543  0.08427925  0.58003376     1.93210
Cr363      Cr  0.42077441  0.13633267  0.58115702     1.39100
O364        O  0.39966967  0.10030816  0.59880946    -1.23630
O365        O  0.40798690  0.83782715  0.62179128    -0.85880
O366        O  0.36947841  0.84770944  0.56482331    -0.82930
C367        C  0.33966836  0.85365188  0.57520617     0.97580
O368        O  0.33301422  0.88126842  0.59020313    -0.82960
O369        O  0.34307829  0.93856348  0.62881171    -0.85600
C370        C  0.34827582  0.92762317  0.65851729     1.02110
O371        O  0.37589732  0.91296960  0.66557938    -0.78370
O372        O  0.43329491  0.87414869  0.65553573    -0.78550
C373        C  0.42335169  0.84419850  0.64906017     1.02060
O374        O  0.46299615  0.87552682  0.59204008    -0.85880
O375        O  0.42158517  0.88986774  0.53695326    -0.82940
C376        C  0.39704561  0.90228309  0.52050035     0.97600
O377        O  0.37035513  0.91203340  0.53546932    -0.82970
O378        O  0.38493772  0.96665570  0.57698281    -0.85570
C379        C  0.39778048  0.98305401  0.60133545     1.02070
O380        O  0.40699569  0.96812143  0.62824488    -0.78390
O381        O  0.46182852  0.92691228  0.61402276    -0.78540
C382        C  0.47824750  0.90230966  0.60154527     1.02040
Cr383      Cr  0.41428907  0.86587113  0.58056032     1.93740
Cr384      Cr  0.36098188  0.92296247  0.58417256     1.93210
Cr385      Cr  0.41780832  0.91926293  0.63777075     1.39100
O386        O  0.39788391  0.90288683  0.60064593    -1.23630
C387        C  0.74104082  0.76624389  0.50187260     0.00030
C388        C  0.76759026  0.74407548  0.50080241     0.00030
C389        C  0.23927628  0.50172409  0.73468693     0.00030
C390        C  0.26473081  0.50199322  0.75796544     0.00030
C391        C  0.49625860  0.24443295  0.73186919     0.00030
C392        C  0.49721454  0.26755641  0.75762217     0.00030
O393        O  0.65284828  0.63063195  0.06430493    -0.85880
O394        O  0.66213883  0.59149441  0.12110086    -0.82930
C395        C  0.65501435  0.57661279  0.14856797     0.97580
O396        O  0.62496480  0.56686074  0.15407694    -0.82960
O397        O  0.58773507  0.62591462  0.16162341    -0.85600
C398        C  0.57218944  0.65290324  0.15382862     1.02110
O399        O  0.55992420  0.65609912  0.12439549    -0.78370
O400        O  0.61687328  0.66720973  0.08641040    -0.78550
C401        C  0.64565267  0.66045126  0.07400749     1.02060
O402        O  0.61245499  0.57836063  0.03400102    -0.85880
O403        O  0.62441663  0.53678786  0.08994032    -0.82940
C404        C  0.59771562  0.52171588  0.09997492     0.97600
O405        O  0.57324986  0.53829859  0.11268739    -0.82970
O406        O  0.53231800  0.59429878  0.12588051    -0.85570
C407        C  0.51706589  0.60159791  0.09860263     1.02070
O408        O  0.53340144  0.61228876  0.07315629    -0.78390
O409        O  0.58791531  0.62854489  0.03204939    -0.78540
C410        C  0.59875617  0.60219922  0.01732545     1.02040
Cr411      Cr  0.63479281  0.58552780  0.07885104     1.93740
Cr412      Cr  0.58080832  0.58294864  0.13543508     1.93210
Cr413      Cr  0.57630732  0.63790629  0.08032387     1.39100
O414        O  0.59722704  0.60182559  0.09783831    -1.23630
O415        O  0.55852580  0.62530232  0.84624352    -0.85880
O416        O  0.61480869  0.58603084  0.83491182    -0.82930
C417        C  0.64316226  0.57253641  0.84128704     0.97580
O418        O  0.65093283  0.56386150  0.87117900    -0.82960
O419        O  0.66228508  0.62052591  0.90996638    -0.85600
C420        C  0.65582532  0.64886200  0.92356163     1.02110
O421        O  0.62597640  0.65610620  0.93267621    -0.78370
O422        O  0.58709356  0.66309584  0.87500005    -0.78550
C423        C  0.57102569  0.65480262  0.84857094     1.02060
O424        O  0.53173815  0.57537172  0.89111272    -0.85880
O425        O  0.58550672  0.53280144  0.87454631    -0.82940
C426        C  0.59697751  0.51808449  0.90052967     0.97600
O427        O  0.61077302  0.53483388  0.92410611    -0.82970
O428        O  0.62454551  0.59013176  0.96487039    -0.85570
C429        C  0.59867489  0.60173842  0.98002269     1.02070
O430        O  0.57479173  0.61602741  0.96384151    -0.78390
O431        O  0.53156409  0.62837114  0.90878437    -0.78540
C432        C  0.51568377  0.60126038  0.90139983     1.02040
Cr433      Cr  0.57453275  0.58127638  0.86487366     1.93740
Cr434      Cr  0.63380784  0.57910690  0.91622806     1.93210
Cr435      Cr  0.58102417  0.63758171  0.91852170     1.39100
O436        O  0.59642184  0.59905278  0.90022137    -1.23630
O437        O  0.33531256  0.59109430  0.12365646    -0.85880
O438        O  0.34365282  0.63087866  0.06717227    -0.82930
C439        C  0.35121423  0.66059711  0.07694212     0.97580
O440        O  0.37958610  0.66685384  0.09019111    -0.82960
O441        O  0.43616057  0.65543328  0.12810562    -0.85600
C442        C  0.42533775  0.64930211  0.15777075     1.02110
O443        O  0.41056586  0.62154795  0.16431439    -0.78370
O444        O  0.37243836  0.56385593  0.15448738    -0.78550
C445        C  0.34261806  0.57492973  0.15028685     1.02060
O446        O  0.37140273  0.53606300  0.09094488    -0.85880
O447        O  0.38357314  0.57886627  0.03582505    -0.82940
C448        C  0.39724761  0.60289686  0.01936523     0.97600
O449        O  0.40825812  0.62913999  0.03438663    -0.82970
O450        O  0.46311222  0.61317378  0.07444704    -0.85570
C451        C  0.47982574  0.60130915  0.09896523     1.02070
O452        O  0.46497594  0.59225158  0.12598782    -0.78390
O453        O  0.42354718  0.53684928  0.11087643    -0.78540
C454        C  0.39831236  0.52051435  0.09955511     1.02040
Cr455      Cr  0.36165614  0.58540059  0.08086646     1.93740
Cr456      Cr  0.42008192  0.63798232  0.08305771     1.93210
Cr457      Cr  0.41661624  0.58033826  0.13582239     1.39100
O458        O  0.39956077  0.60110216  0.09960291    -1.23630
O459        O  0.37650979  0.58944299  0.83675816    -0.85880
O460        O  0.43395675  0.62809086  0.84581942    -0.82930
C461        C  0.42228589  0.65762286  0.85054889     0.97580
O462        O  0.40677206  0.66469586  0.87766068    -0.82960
O463        O  0.36745837  0.65555624  0.93472047    -0.85600
C464        C  0.33758161  0.64653562  0.92693414     1.02110
O465        O  0.33200988  0.61814431  0.91311006    -0.78370
O466        O  0.34505795  0.56218800  0.87372364    -0.78550
C467        C  0.34931466  0.57411622  0.84418067     1.02060
O468        O  0.40722399  0.53462558  0.87372050    -0.85880
O469        O  0.46189137  0.57674326  0.88888297    -0.82940
C470        C  0.47809776  0.60175960  0.90095546     0.97600
O471        O  0.46260767  0.62883783  0.90959905    -0.82970
O472        O  0.42051697  0.61675267  0.96535970    -0.85570
C473        C  0.39703066  0.60239717  0.98199292     1.02070
O474        O  0.37140746  0.59008140  0.96712946    -0.78390
O475        O  0.38862223  0.53600695  0.92610724    -0.78540
C476        C  0.39939213  0.51943634  0.90093528     1.02040
Cr477      Cr  0.41827821  0.58351438  0.86444392     1.93740
Cr478      Cr  0.41323163  0.63831016  0.92022300     1.93210
Cr479      Cr  0.36236346  0.57837477  0.91861207     1.39100
O480        O  0.39805678  0.60009275  0.90139982    -1.23630
O481        O  0.65074518  0.37161138  0.93792729    -0.85880
O482        O  0.66184840  0.41107712  0.88166956    -0.82930
C483        C  0.65550319  0.42541399  0.85377927     0.97580
O484        O  0.62555334  0.43428360  0.84645939    -0.82960
O485        O  0.58636266  0.37677950  0.83818488    -0.85600
C486        C  0.57073319  0.34971021  0.84567021     1.02110
O487        O  0.55883302  0.34588017  0.87515967    -0.78370
O488        O  0.61613060  0.33569997  0.91295085    -0.78550
C489        C  0.64395773  0.34188899  0.92747847     1.02060
O490        O  0.60879992  0.42490801  0.96615857    -0.85880
O491        O  0.62379990  0.46584688  0.91174412    -0.82940
C492        C  0.59754609  0.48079369  0.90083771     0.97600
O493        O  0.57372821  0.46439712  0.88691488    -0.82970
O494        O  0.53136194  0.40983358  0.87433422    -0.85570
C495        C  0.51601606  0.40135938  0.90133937     1.02070
O496        O  0.53215129  0.38932242  0.92632091    -0.78390
O497        O  0.58717072  0.37354733  0.96791799    -0.78540
C498        C  0.59661720  0.40042560  0.98285709     1.02040
Cr499      Cr  0.63314698  0.41702619  0.92268844     1.93740
Cr500      Cr  0.58047617  0.41969634  0.86459901     1.93210
Cr501      Cr  0.57532322  0.36428200  0.91933372     1.39100
O502        O  0.59620614  0.40065007  0.90235232    -1.23630
O503        O  0.66194624  0.41404889  0.11985013    -0.85880
O504        O  0.65150110  0.37494261  0.06319458    -0.82930
C505        C  0.64686681  0.34533491  0.07499962     0.97580
O506        O  0.62029776  0.33896089  0.09177513    -0.82960
O507        O  0.56272634  0.34815994  0.13069283    -0.85600
C508        C  0.57246952  0.35576962  0.16033532     1.02110
O509        O  0.58742381  0.38359690  0.16581547    -0.78370
O510        O  0.62608081  0.44011572  0.15374682    -0.78550
C511        C  0.65573097  0.42940694  0.14724511     1.02060
O512        O  0.62419555  0.46881845  0.09038103    -0.85880
O513        O  0.60812023  0.42657958  0.03602755    -0.82940
C514        C  0.59677899  0.40103633  0.02019911     0.97600
O515        O  0.58862622  0.37412943  0.03602409    -0.82970
O516        O  0.53344436  0.38834344  0.07747806    -0.85570
C517        C  0.51702870  0.40163829  0.10167492     1.02070
O518        O  0.53219027  0.41225062  0.12797954    -0.78390
O519        O  0.57287375  0.46768330  0.11207853    -0.78540
C520        C  0.59755249  0.48416809  0.09988437     1.02040
Cr521      Cr  0.63338770  0.41990202  0.07905163     1.93740
Cr522      Cr  0.57782426  0.36545769  0.08512678     1.93210
Cr523      Cr  0.58085884  0.42425276  0.13681033     1.39100
O524        O  0.59708410  0.40338718  0.10020620    -1.23630
O525        O  0.37001632  0.34617419  0.93695960    -0.85880
O526        O  0.40950521  0.33622801  0.88046522    -0.82930
C527        C  0.42418474  0.34328319  0.85289364     0.97580
O528        O  0.43373898  0.37330803  0.84680359    -0.82960
O529        O  0.37567722  0.41116001  0.83839321    -0.85600
C530        C  0.34875494  0.42717209  0.84522220     1.02110
O531        O  0.34374588  0.43826789  0.87498554    -0.78370
O532        O  0.33310319  0.38182113  0.91482799    -0.78550
C533        C  0.33998659  0.35353838  0.92833798     1.02060
O534        O  0.42209276  0.38726047  0.96637194    -0.85880
O535        O  0.46374799  0.37443936  0.91171736    -0.82940
C536        C  0.47872076  0.40101884  0.90133528     0.97600
O537        O  0.46235430  0.42513447  0.88777025    -0.82970
O538        O  0.40685652  0.46661821  0.87402641    -0.85570
C539        C  0.39898873  0.48207831  0.90107172     1.02070
O540        O  0.38766178  0.46589485  0.92629977    -0.78390
O541        O  0.37205331  0.41195421  0.96811878    -0.78540
C542        C  0.39832151  0.40105519  0.98286343     1.02040
Cr543      Cr  0.41499990  0.36424628  0.92219554     1.93740
Cr544      Cr  0.41797683  0.41778470  0.86500612     1.93210
Cr545      Cr  0.36231424  0.42270523  0.91965157     1.39100
O546        O  0.39860179  0.40159281  0.90252800    -1.23630
O547        O  0.43502536  0.34810158  0.12920742    -0.85880
O548        O  0.37860459  0.33705554  0.09009710    -0.82930
C549        C  0.35090338  0.34317835  0.07526714     0.97580
O550        O  0.34438743  0.37285648  0.06468496    -0.82960
O551        O  0.33440702  0.41177164  0.12132354    -0.85600
C552        C  0.34062996  0.42762878  0.14835588     1.02110
O553        O  0.37018736  0.43871563  0.15429073    -0.78370
O554        O  0.40836571  0.38142479  0.16480910    -0.78550
C555        C  0.42363911  0.35389228  0.15874438     1.02060
O556        O  0.46342156  0.38981898  0.07661151    -0.85880
O557        O  0.40910533  0.37452520  0.03514603    -0.82940
C558        C  0.39887530  0.40099067  0.01999224     0.97600
O559        O  0.38570667  0.42539491  0.03617393    -0.82970
O560        O  0.37127209  0.46741905  0.09091735    -0.85570
C561        C  0.39809762  0.48287411  0.09992836     1.02070
O562        O  0.42283706  0.46651693  0.11222245    -0.78390
O563        O  0.46411286  0.41124928  0.12806473    -0.78540
C564        C  0.47963207  0.40181778  0.10147962     1.02040
Cr565      Cr  0.41984759  0.36546336  0.08395961     1.93740
Cr566      Cr  0.36205270  0.41820166  0.07990583     1.93210
Cr567      Cr  0.41522407  0.42285927  0.13677662     1.39100
O568        O  0.39923925  0.40238174  0.09992054    -1.23630
C569        C  0.73550512  0.49993218  0.76345813     0.00030
C570        C  0.76099509  0.50027754  0.74028729     0.00030
C571        C  0.99737192  0.23354278  0.24331742     0.00030
C572        C  0.99794536  0.25660542  0.26903467     0.00030
C573        C  0.72923939  0.24368438  0.49866345     0.00030
C574        C  0.75137157  0.27032069  0.49886153     0.00030
C575        C  0.73878831  0.50131776  0.23531603     0.00030
C576        C  0.76592997  0.50149993  0.25656625     0.00030
O577        O  0.11754552  0.66352659  0.40927727    -0.85880
O578        O  0.05975899  0.65353494  0.37204897    -0.82930
C579        C  0.07008027  0.64777626  0.34221631     0.97580
O580        O  0.08419061  0.61988633  0.33498961    -0.82960
O581        O  0.12306547  0.56294688  0.34513798    -0.85600
C582        C  0.15278885  0.57415849  0.35009811     1.02110
O583        O  0.15980533  0.58957767  0.37726777    -0.78370
O584        O  0.15090494  0.62760481  0.43523957    -0.78550
C585        C  0.14472089  0.65747457  0.42502051     1.02060
O586        O  0.08798597  0.62666120  0.46478176    -0.85880
O587        O  0.03193374  0.61246643  0.42455893    -0.82940
C588        C  0.01518861  0.59931439  0.40055600     0.97600
O589        O  0.02981552  0.58944219  0.37368234    -0.82970
O590        O  0.07135715  0.53500194  0.38810821    -0.85570
C591        C  0.09640952  0.51872071  0.39961953     1.02070
O592        O  0.12349248  0.53401673  0.40781168    -0.78390
O593        O  0.10945171  0.57501520  0.46340671    -0.78540
C594        C  0.09754342  0.59990675  0.47988526     1.02040
Cr595      Cr  0.07587523  0.63596757  0.41644864     1.93740
Cr596      Cr  0.07839608  0.57847394  0.36348251     1.93210
Cr597      Cr  0.13283000  0.58272149  0.41932409     1.39100
O598        O  0.09542233  0.59885237  0.39997372    -1.23630
O599        O  0.83213565  0.61923252  0.41265340    -0.85880
O600        O  0.84333487  0.56208292  0.37404746    -0.82930
C601        C  0.84867503  0.57338708  0.34446140     0.97580
O602        O  0.87637648  0.58793107  0.33745088    -0.82960
O603        O  0.93441841  0.62544078  0.34616604    -0.85600
C604        C  0.92346530  0.65526098  0.35033990     1.02110
O605        O  0.90838974  0.66304417  0.37758053    -0.78370
O606        O  0.86896610  0.65501389  0.43455853    -0.78550
C607        C  0.83895634  0.64767143  0.42591039     1.02060
O608        O  0.87028148  0.58989788  0.46709508    -0.85880
O609        O  0.88600567  0.53493875  0.42697906    -0.82940
C610        C  0.89809113  0.51820929  0.40248057     0.97600
O611        O  0.90624025  0.53304771  0.37516128    -0.82970
O612        O  0.96157947  0.57457308  0.38910391    -0.85570
C613        C  0.97792877  0.59939081  0.40137558     1.02070
O614        O  0.96285230  0.62634310  0.41059105    -0.78390
O615        O  0.92040215  0.61466743  0.46540508    -0.78540
C616        C  0.89648960  0.60090479  0.48187900     1.02040
Cr617      Cr  0.86111022  0.57823481  0.41877707     1.93740
Cr618      Cr  0.91790332  0.58152355  0.36512532     1.93210
Cr619      Cr  0.91391442  0.63659049  0.42046947     1.39100
O620        O  0.89781239  0.59870964  0.40178551    -1.23630
O621        O  0.83467894  0.58814058  0.62326521    -0.85880
O622        O  0.84328264  0.62844056  0.56681788    -0.82930
C623        C  0.85065041  0.65817969  0.57647972     0.97580
O624        O  0.87925677  0.66447337  0.58954571    -0.82960
O625        O  0.93691203  0.65273257  0.62682183    -0.85600
C626        C  0.92679984  0.64760570  0.65687133     1.02110
O627        O  0.91190237  0.62011156  0.66443325    -0.78370
O628        O  0.87273555  0.56232602  0.65422593    -0.78550
C629        C  0.84287281  0.57318972  0.65040115     1.02060
O630        O  0.87121210  0.53391938  0.58948628    -0.85880
O631        O  0.88327999  0.57685996  0.53535423    -0.82940
C632        C  0.89691783  0.60094969  0.51904028     0.97600
O633        O  0.90804165  0.62702085  0.53406510    -0.82970
O634        O  0.96333037  0.61061832  0.57385212    -0.85570
C635        C  0.98015842  0.59876437  0.59840180     1.02070
O636        O  0.96529438  0.58969407  0.62540498    -0.78390
O637        O  0.92295785  0.53496174  0.61064286    -0.78540
C638        C  0.89815357  0.51873298  0.59820730     1.02040
Cr639      Cr  0.86139709  0.58311436  0.58036293     1.93740
Cr640      Cr  0.92009065  0.63552422  0.58240875     1.93210
Cr641      Cr  0.91680497  0.57846347  0.63556550     1.39100
O642        O  0.89945591  0.59891716  0.59924112    -1.23630
O643        O  0.15175744  0.62907014  0.56135053    -0.85880
O644        O  0.16314707  0.58974266  0.61776103    -0.82930
C645        C  0.15691808  0.57475982  0.64537776     0.97580
O646        O  0.12705487  0.56519503  0.65251164    -0.82960
O647        O  0.08713439  0.62194380  0.66243746    -0.85600
C648        C  0.07127339  0.64886834  0.65527888     1.02110
O649        O  0.06048411  0.65380618  0.62545778    -0.78370
O650        O  0.11787153  0.66480667  0.58743254    -0.78550
C651        C  0.14557901  0.65865022  0.57250763     1.02060
O652        O  0.11017261  0.57559116  0.53354581    -0.85880
O653        O  0.12590698  0.53472539  0.58783005    -0.82940
C654        C  0.09956065  0.51957389  0.59824746     0.97600
O655        O  0.07522232  0.53580869  0.61143672    -0.82970
O656        O  0.03292232  0.59040062  0.62507777    -0.85570
C657        C  0.01755562  0.59905242  0.59815598     1.02070
O658        O  0.03381751  0.61099901  0.57319961    -0.78390
O659        O  0.08893605  0.62714750  0.53228097    -0.78540
C660        C  0.09798394  0.60021911  0.51713945     1.02040
Cr661      Cr  0.13464680  0.58358271  0.57679628     1.93740
Cr662      Cr  0.08182871  0.57992202  0.63477458     1.93210
Cr663      Cr  0.07696199  0.63613639  0.58083528     1.39100
O664        O  0.09776062  0.59968623  0.59743097    -1.23630
O665        O  0.93106875  0.37245925  0.34554163    -0.85880
O666        O  0.87312184  0.41177256  0.33933600    -0.82930
C667        C  0.84689737  0.42816520  0.34808475     0.97580
O668        O  0.84457540  0.43921474  0.37800497    -0.82960
O669        O  0.83435837  0.38072969  0.41419761    -0.85600
C670        C  0.84055733  0.35222700  0.42755519     1.02110
O671        O  0.87021339  0.34495754  0.43746877    -0.78370
O672        O  0.90786714  0.33537779  0.37989064    -0.78550
C673        C  0.92131088  0.34254063  0.35170363     1.02060
O674        O  0.96206459  0.42301407  0.38619780    -0.85880
O675        O  0.90671994  0.46562777  0.37579073    -0.82940
C676        C  0.89908389  0.48080437  0.40314016     0.97600
O677        O  0.88897722  0.46419006  0.42872922    -0.82970
O678        O  0.87342942  0.40776703  0.46887606    -0.85570
C679        C  0.90012121  0.39745942  0.48336845     1.02070
O680        O  0.92421187  0.38513659  0.46621089    -0.78390
O681        O  0.96360431  0.37217792  0.40996541    -0.78540
C682        C  0.97846489  0.39873505  0.39948189     1.02040
Cr683      Cr  0.91679369  0.41692807  0.36486033     1.93740
Cr684      Cr  0.86337075  0.42121002  0.42117327     1.93210
Cr685      Cr  0.91522293  0.36261354  0.42176943     1.39100
O686        O  0.89889543  0.40040148  0.40286234    -1.23630
O687        O  0.12454914  0.43659520  0.34647798    -0.85880
O688        O  0.08554327  0.37979062  0.33576370    -0.82930
C689        C  0.07161683  0.35170636  0.34257273     0.97580
O690        O  0.06238162  0.34474210  0.37252348    -0.82960
O691        O  0.11917361  0.33608987  0.41191258    -0.85600
C692        C  0.14626996  0.34392131  0.42703690     1.02110
O693        O  0.15010959  0.37375418  0.43829794    -0.78370
O694        O  0.16070878  0.41156420  0.38063360    -0.78550
C695        C  0.15436275  0.42657766  0.35306142     1.02060
O696        O  0.07168021  0.46476564  0.38831250    -0.85880
O697        O  0.03082951  0.40995144  0.37330314    -0.82940
C698        C  0.01567322  0.39914357  0.39946558     0.97600
O699        O  0.03185232  0.38567438  0.42368814    -0.82970
O700        O  0.08631936  0.37338259  0.46666867    -0.85570
C701        C  0.09556724  0.40035202  0.48179244     1.02070
O702        O  0.10768284  0.42515407  0.46525992    -0.78390
O703        O  0.12302021  0.46634695  0.40970635    -0.78540
C704        C  0.09634035  0.48139194  0.40017420     1.02040
Cr705      Cr  0.07946499  0.42106745  0.36419069     1.93740
Cr706      Cr  0.07654612  0.36315673  0.41747549     1.93210
Cr707      Cr  0.13219547  0.41788872  0.42173982     1.39100
O708        O  0.09575907  0.40083714  0.40126546    -1.23630
O709        O  0.83563042  0.37685694  0.59011915    -0.85880
O710        O  0.84467838  0.43635385  0.62699664    -0.82930
C711        C  0.84966261  0.42738701  0.65728770     0.97580
O712        O  0.87753016  0.41376484  0.66553827    -0.82960
O713        O  0.93571249  0.37564997  0.65637574    -0.85600
C714        C  0.92521983  0.34557445  0.65268499     1.02110
O715        O  0.91056851  0.33705220  0.62545561    -0.78370
O716        O  0.87333202  0.34368650  0.56649143    -0.78550
C717        C  0.84301955  0.34911327  0.57556543     1.02060
O718        O  0.87339946  0.40669132  0.53550081    -0.85880
O719        O  0.88566840  0.46406780  0.57504385    -0.82940
C720        C  0.89822914  0.48140484  0.59904071     0.97600
O721        O  0.90779224  0.46732684  0.62616952    -0.82970
O722        O  0.96313577  0.42666556  0.61300685    -0.85570
C723        C  0.97994509  0.40159040  0.60210499     1.02070
O724        O  0.96527187  0.37403423  0.59427254    -0.78390
O725        O  0.92499089  0.38538141  0.53752096    -0.78540
C726        C  0.90031737  0.39720583  0.52071953     1.02040
Cr727      Cr  0.86292072  0.41940769  0.58327538     1.93740
Cr728      Cr  0.91938263  0.41933246  0.63719433     1.93210
Cr729      Cr  0.91722993  0.36321712  0.58251339     1.39100
O730        O  0.89999671  0.40090142  0.60075277    -1.23630
O731        O  0.12386677  0.34647111  0.56376251    -0.85880
O732        O  0.08727436  0.33823678  0.62280113    -0.82930
C733        C  0.07246433  0.34541993  0.65038600     0.97580
O734        O  0.06195822  0.37533664  0.65571480    -0.82960
O735        O  0.11926249  0.41398976  0.66418112    -0.85600
C736        C  0.14729766  0.42770008  0.65689788     1.02110
O737        O  0.15411019  0.43613154  0.62667277    -0.78370
O738        O  0.16197368  0.37815179  0.58843673    -0.78550
C739        C  0.15389776  0.35066202  0.57403308     1.02060
O740        O  0.07234370  0.38810896  0.53630726    -0.85880
O741        O  0.03219540  0.37487788  0.59306632    -0.82940
C742        C  0.01718461  0.40195647  0.60168977     0.97600
O743        O  0.03378052  0.42708958  0.61269442    -0.82970
O744        O  0.08903620  0.46796510  0.62578443    -0.85570
C745        C  0.09952385  0.48238560  0.59910824     1.02070
O746        O  0.11283248  0.46556888  0.57521559    -0.78390
O747        O  0.12382603  0.40995247  0.53369113    -0.78540
C748        C  0.09661519  0.40055463  0.51923973     1.02040
Cr749      Cr  0.08024284  0.36510596  0.58060873     1.93740
Cr750      Cr  0.07772000  0.41972910  0.63639397     1.93210
Cr751      Cr  0.13502146  0.42083762  0.58233770     1.39100
O752        O  0.09748351  0.40227218  0.59954695    -1.23630
C753        C  0.76819469  0.46862047  0.30958818    -0.20840
C754        C  0.77754075  0.47039942  0.27527090    -0.07400
C755        C  0.80495525  0.45006141  0.26395233     0.13470
C756        C  0.82641185  0.43458174  0.28810342    -0.20890
C757        C  0.81998732  0.43767749  0.32316103    -0.07410
C758        C  0.78868225  0.45248659  0.33366868     0.13450
C759        C  0.77687999  0.45318525  0.37022957    -0.24240
H760        H  0.74648958  0.48312902  0.31837010     0.14740
H761        H  0.84891265  0.42114684  0.27954643     0.14770
C762        C  0.81102069  0.44355531  0.22678460    -0.24190
H763        H  0.75024972  0.46233232  0.37253623     0.04980
H764        H  0.79280269  0.47088833  0.38537400     0.08210
H765        H  0.77780187  0.42710679  0.38113333     0.08210
H766        H  0.81433440  0.46747242  0.21256957     0.08190
H767        H  0.78899128  0.42951459  0.21619318     0.08190
H768        H  0.83401091  0.42768752  0.22255314     0.04970
C769        C  0.76750961  0.54775430  0.29942793    -0.20840
C770        C  0.78129754  0.53380207  0.26958457    -0.07400
C771        C  0.81506079  0.54235145  0.26074510     0.13470
C772        C  0.83600961  0.55817341  0.28477115    -0.20890
C773        C  0.82374528  0.56613250  0.31727682    -0.07410
C774        C  0.78841983  0.56338111  0.32374341     0.13450
C775        C  0.77269797  0.57567993  0.35651499    -0.24240
H776        H  0.74132151  0.54258063  0.30588016     0.14740
H777        H  0.86266958  0.56196393  0.27881501     0.14770
C778        C  0.83013000  0.53383449  0.22673886    -0.24190
H779        H  0.74451842  0.57401251  0.35582192     0.04980
H780        H  0.77965682  0.60274825  0.36089802     0.08210
H781        H  0.78138007  0.55989872  0.37818324     0.08210
H782        H  0.81089493  0.52345994  0.20914218     0.08190
H783        H  0.85108485  0.51516158  0.22989376     0.08190
H784        H  0.84046595  0.55735611  0.21492531     0.04970
C785        C  0.79013671  0.27278577  0.44958048    -0.20840
C786        C  0.76290398  0.28779299  0.46716388    -0.07400
C787        C  0.75703983  0.32316270  0.46282524     0.13470
C788        C  0.78192630  0.34321417  0.44718673    -0.20890
C789        C  0.81224012  0.32884856  0.43538450    -0.07410
C790        C  0.81551875  0.29296538  0.43449324     0.13450
C791        C  0.84598915  0.27586671  0.41867928    -0.24240
H792        H  0.79373995  0.24549351  0.45110842     0.14740
H793        H  0.77848799  0.37060186  0.44598290     0.14770
C794        C  0.72464877  0.34032185  0.47391414    -0.24190
H795        H  0.84319599  0.24769992  0.41844162     0.04980
H796        H  0.86930907  0.28190283  0.43327695     0.08210
H797        H  0.84904154  0.28457801  0.39200583     0.08210
H798        H  0.71683859  0.33260752  0.49963622     0.08190
H799        H  0.70426294  0.33400742  0.45558216     0.08190
H800        H  0.72721118  0.36851180  0.47396696     0.04970
C801        C  0.75883804  0.30768523  0.54978290    -0.20840
C802        C  0.77087675  0.28056010  0.52996969    -0.07400
C803        C  0.80533140  0.27102061  0.53355774     0.13470
C804        C  0.82773667  0.29258086  0.55101798    -0.20890
C805        C  0.81660942  0.32329220  0.56590658    -0.07410
C806        C  0.78110132  0.32918184  0.56763442     0.13450
C807        C  0.76610607  0.35830183  0.58724638    -0.24240
H808        H  0.73230455  0.31396725  0.54957574     0.14740
H809        H  0.85448519  0.28599248  0.55137540     0.14770
C810        C  0.81957329  0.23888546  0.51826993    -0.24190
H811        H  0.73788062  0.35825255  0.58651902     0.04980
H812        H  0.77470817  0.38289107  0.57631147     0.08210
H813        H  0.77379533  0.35572044  0.61421828     0.08210
H814        H  0.83944298  0.24533413  0.49925230     0.08190
H815        H  0.79977398  0.22320392  0.50588757     0.08190
H816        H  0.83119707  0.22315056  0.53860669     0.04970
C817        C  0.02962286  0.31089687  0.26671333    -0.20840
C818        C  0.02911874  0.27675948  0.27762733    -0.07400
C819        C  0.05162523  0.26692788  0.30382166     0.13470
C820        C  0.06823571  0.29220640  0.32276297    -0.20890
C821        C  0.06354161  0.32686226  0.31559644    -0.07410
C822        C  0.04580238  0.33630346  0.28590950     0.13450
C823        C  0.04089058  0.37313450  0.27628271    -0.24240
H824        H  0.01407795  0.31830956  0.24528397     0.14740
H825        H  0.08331899  0.28500418  0.34465469     0.14770
C826        C  0.05845901  0.23025419  0.31216557    -0.24190
H827        H  0.02541449  0.37584009  0.25285630     0.04980
H828        H  0.06596504  0.38522617  0.27154512     0.08210
H829        H  0.02755975  0.38686065  0.29708003     0.08210
H830        H  0.06895114  0.21727542  0.28946319     0.08190
H831        H  0.03513685  0.21745825  0.32079917     0.08190
H832        H  0.07748520  0.22762557  0.33281953     0.04970
C833        C  0.93997564  0.28366707  0.33980132    -0.20840
C834        C  0.92967318  0.31531733  0.32708597    -0.07400
C835        C  0.93263979  0.32165840  0.29178555     0.13470
C836        C  0.95081847  0.29859477  0.27147125    -0.20890
C837        C  0.96608333  0.26952489  0.28548286    -0.07410
C838        C  0.95771396  0.26052836  0.31931390     0.13450
C839        C  0.96794577  0.22735504  0.33509142    -0.24240
H840        H  0.93637621  0.27782971  0.36650440     0.14740
H841        H  0.95645941  0.30549768  0.24554467     0.14770
C842        C  0.91785321  0.35310858  0.27547238    -0.24190
H843        H  0.94517354  0.21460397  0.34592278     0.04980
H844        H  0.98656395  0.23194300  0.35576865     0.08210
H845        H  0.97871199  0.20983605  0.31615350     0.08210
H846        H  0.93163762  0.37625620  0.28385665     0.08190
H847        H  0.89051099  0.35533665  0.28217658     0.08190
H848        H  0.91982259  0.35202198  0.24732885     0.04970
C849        C  0.76678075  0.45811491  0.69520579    -0.20840
C850        C  0.77727813  0.46856606  0.72736099    -0.07400
C851        C  0.80894920  0.45695454  0.73970526     0.13470
C852        C  0.83183927  0.44103547  0.71707110    -0.20890
C853        C  0.82304137  0.43586394  0.68280786    -0.07410
C854        C  0.78901882  0.44230341  0.67269027     0.13450
C855        C  0.77592867  0.43466876  0.63759913    -0.24240
H856        H  0.74204390  0.46546735  0.68610404     0.14740
H857        H  0.85711723  0.43437967  0.72570643     0.14770
C858        C  0.81828609  0.46077118  0.77658050    -0.24190
H859        H  0.74772060  0.43544967  0.63639046     0.04980
H860        H  0.78410362  0.40883390  0.63043287     0.08210
H861        H  0.78579989  0.45356476  0.61908072     0.08210
H862        H  0.80006175  0.44600758  0.79228748     0.08190
H863        H  0.81745372  0.48764921  0.78477930     0.08190
H864        H  0.84419379  0.45082887  0.78174416     0.04970
C865        C  0.80595095  0.54331493  0.73379152    -0.20840
C866        C  0.77380758  0.53204863  0.72362661    -0.07400
C867        C  0.76106840  0.54332138  0.69193097     0.13470
C868        C  0.78343249  0.55893410  0.66858446    -0.20890
C869        C  0.81748690  0.56533145  0.67729056    -0.07410
C870        C  0.82762577  0.56047824  0.71147120     0.13450
C871        C  0.86133963  0.57291238  0.72479303    -0.24240
H872        H  0.81533856  0.53658564  0.75862394     0.14740
H873        H  0.77467839  0.56478563  0.64315443     0.14770
C874        C  0.72401884  0.53985003  0.68303888    -0.24190
H875        H  0.86287686  0.57068974  0.75289126     0.04980
H876        H  0.86438853  0.60021630  0.71818837     0.08210
H877        H  0.88263974  0.55780167  0.71415801     0.08210
H878        H  0.70879954  0.55559719  0.70083084     0.08190
H879        H  0.71516026  0.51326302  0.68485150     0.08190
H880        H  0.71877911  0.54902947  0.65687552     0.04970
C881        C  0.73658673  0.46531190  0.18447611    -0.20840
C882        C  0.72635407  0.46970641  0.21842415    -0.07400
C883        C  0.69702235  0.45237138  0.22995257     0.13470
C884        C  0.67577325  0.43648673  0.20623064    -0.20890
C885        C  0.68327408  0.43730056  0.17139398    -0.07410
C886        C  0.71501868  0.45018757  0.16052769     0.13450
C887        C  0.72486446  0.45138196  0.12350565    -0.24240
H888        H  0.75971379  0.47753863  0.17580171     0.14740
H889        H  0.65208688  0.42519887  0.21479857     0.14770
C890        C  0.68679932  0.45076205  0.26668423    -0.24190
H891        H  0.75000757  0.46369666  0.11965641     0.04980
H892        H  0.70576126  0.46626490  0.10900154     0.08210
H893        H  0.72644263  0.42511596  0.11316514     0.08210
H894        H  0.70470556  0.46447633  0.28320376     0.08190
H895        H  0.68621740  0.42374180  0.27502119     0.08190
H896        H  0.66105053  0.46175032  0.27012169     0.04970
C897        C  0.67674992  0.43189504  0.79489857    -0.20840
C898        C  0.68311242  0.43452074  0.82987246    -0.07400
C899        C  0.71321108  0.45070509  0.84093039     0.13470
C900        C  0.73385887  0.46729638  0.81698688    -0.20890
C901        C  0.72499758  0.46860864  0.78244195    -0.07410
C902        C  0.69779632  0.44804877  0.77096369     0.13450
C903        C  0.69062705  0.44297958  0.73376229    -0.24240
H904        H  0.65439351  0.41820180  0.78636296     0.14740
H905        H  0.75520357  0.48210877  0.82588117     0.14770
C906        C  0.72205014  0.45348362  0.87808625    -0.24190
H907        H  0.66663613  0.42864917  0.72962984     0.04980
H908        H  0.71143736  0.42770889  0.72246128     0.08210
H909        H  0.68852889  0.46750890  0.72017045     0.08210
H910        H  0.72564137  0.42764222  0.88896049     0.08190
H911        H  0.70139612  0.46687977  0.89196083     0.08190
H912        H  0.74595403  0.46799410  0.88212505     0.04970
C913        C  0.70227113  0.56775149  0.82084019    -0.20840
C914        C  0.66745350  0.56438595  0.81388122    -0.07400
C915        C  0.65714007  0.54812293  0.78362181     0.13470
C916        C  0.68171535  0.53197204  0.76346836    -0.20890
C917        C  0.71605536  0.53105696  0.77315955    -0.07410
C918        C  0.72680723  0.55179620  0.80045292     0.13450
C919        C  0.76381493  0.55680957  0.80870009    -0.24240
H920        H  0.71018524  0.58156342  0.84334817     0.14740
H921        H  0.67345418  0.51711035  0.74193209     0.14770
C922        C  0.62018295  0.54471120  0.77415190    -0.24190
H923        H  0.76727395  0.57109057  0.83281697     0.04980
H924        H  0.77573008  0.57210061  0.78826286     0.08210
H925        H  0.77729863  0.53222274  0.81114152     0.08210
H926        H  0.60889249  0.57037008  0.77053333     0.08190
H927        H  0.60621334  0.53093663  0.79448917     0.08190
H928        H  0.61680998  0.53026746  0.75011260     0.04970
C929        C  0.67046209  0.56159281  0.20772379    -0.20840
C930        C  0.68143847  0.56804793  0.17431661    -0.07400
C931        C  0.71581493  0.56125100  0.16593245     0.13470
C932        C  0.73670704  0.54481460  0.18976956    -0.20890
C933        C  0.72372975  0.53317847  0.22091782    -0.07410
C934        C  0.69096668  0.54404734  0.23093903     0.13450
C935        C  0.67605961  0.53616290  0.26523492    -0.24240
H936        H  0.64468717  0.56807099  0.21513107     0.14740
H937        H  0.76199821  0.53722353  0.18218949     0.14770
C938        C  0.73015868  0.56850159  0.13125704    -0.24190
H939        H  0.66968844  0.56034285  0.27843662     0.04980
H940        H  0.69379448  0.52185667  0.28157716     0.08210
H941        H  0.65241124  0.52106345  0.26213165     0.08210
H942        H  0.72916529  0.59621154  0.12660000     0.08190
H943        H  0.71549163  0.55461386  0.11155607     0.08190
H944        H  0.75715277  0.56050696  0.12901611     0.04970
C945        C  0.46369953  0.26587940  0.81142215    -0.20840
C946        C  0.46608181  0.27737820  0.77760309    -0.07400
C947        C  0.44589579  0.30552714  0.76787736     0.13470
C948        C  0.43029289  0.32543592  0.79305969    -0.20890
C949        C  0.43253267  0.31673531  0.82754242    -0.07410
C950        C  0.44743015  0.28533094  0.83662700     0.13450
C951        C  0.44903722  0.27370066  0.87306716    -0.24240
H952        H  0.47744960  0.24328143  0.81894067     0.14740
H953        H  0.41695096  0.34851280  0.78588776     0.14770
C954        C  0.43902111  0.31395643  0.73129998    -0.24190
H955        H  0.46243763  0.24892460  0.87559389     0.04980
H956        H  0.42289182  0.27043210  0.88322037     0.08210
H957        H  0.46292069  0.29278508  0.88859392     0.08210
H958        H  0.42072037  0.29509652  0.72111054     0.08190
H959        H  0.46228224  0.31330016  0.71583443     0.08190
H960        H  0.42734950  0.33956613  0.72846484     0.04970
C961        C  0.54100472  0.26816567  0.80269996    -0.20840
C962        C  0.52991325  0.28155497  0.77157321    -0.07400
C963        C  0.54274856  0.31371966  0.76152695     0.13470
C964        C  0.55903096  0.33450807  0.78556862    -0.20890
C965        C  0.56300167  0.32376112  0.81927308    -0.07410
C966        C  0.55630463  0.28913435  0.82725140     0.13450
C967        C  0.56394638  0.27423929  0.86173776    -0.24240
H968        H  0.53398842  0.24234051  0.80940812     0.14740
H969        H  0.56640121  0.36017508  0.77854361     0.14770
C970        C  0.54009761  0.32626139  0.72565975    -0.24190
H971        H  0.55987346  0.24623091  0.86216670     0.04980
H972        H  0.54691019  0.28535910  0.88128531     0.08210
H973        H  0.59089506  0.27917394  0.86848670     0.08210
H974        H  0.51341213  0.33039173  0.71865042     0.08190
H975        H  0.55228406  0.30755543  0.70842605     0.08190
H976        H  0.55345404  0.35095164  0.72212100     0.04970
C977        C  0.31042432  0.45898545  0.76271535    -0.20840
C978        C  0.27864150  0.47051379  0.77424617    -0.07400
C979        C  0.26739083  0.45989439  0.80671856     0.13470
C980        C  0.29004207  0.44294115  0.82838905    -0.20890
C981        C  0.32361558  0.43578281  0.81837417    -0.07410
C982        C  0.33305065  0.44166607  0.78416068     0.13450
C983        C  0.36768569  0.43236276  0.77057090    -0.24240
H984        H  0.31898512  0.46603242  0.73765457     0.14740
H985        H  0.28194452  0.43707946  0.85408973     0.14770
C986        C  0.23238113  0.46756233  0.82006691    -0.24190
H987        H  0.37046435  0.43903699  0.74327815     0.04980
H988        H  0.37172033  0.40446604  0.77297070     0.08210
H989        H  0.38768886  0.44630675  0.78477932     0.08210
H990        H  0.21666709  0.48132933  0.80136396     0.08190
H991        H  0.23423126  0.48324695  0.84348418     0.08190
H992        H  0.21922267  0.44332914  0.82632762     0.04970
C993        C  0.26776916  0.54419300  0.80384772    -0.20840
C994        C  0.27951370  0.53404976  0.77181851    -0.07400
C995        C  0.31127651  0.54636568  0.76043036     0.13470
C996        C  0.33332089  0.56200805  0.78390786    -0.20890
C997        C  0.32331403  0.56685519  0.81791520    -0.07410
C998        C  0.28893264  0.56098288  0.82686789     0.13450
C999        C  0.27435865  0.57128343  0.86086706    -0.24240
H1000       H  0.24292333  0.53609176  0.81229956     0.14740
H1001       H  0.35891476  0.56866828  0.77613480     0.14770
C1002       C  0.32169878  0.54327571  0.72373059    -0.24190
H1003       H  0.24628976  0.56820453  0.86151605     0.04980
H1004       H  0.28007139  0.59853916  0.86584850     0.08210
H1005       H  0.28478624  0.55521047  0.88151311     0.08210
H1006       H  0.30352527  0.55776099  0.70777224     0.08190
H1007       H  0.32174471  0.51651520  0.71515891     0.08190
H1008       H  0.34748989  0.55392358  0.71931110     0.04970
C1009       C  0.20684396  0.43452109  0.67594157    -0.20840
C1010       C  0.17206389  0.43650439  0.68373492    -0.07400
C1011       C  0.16190316  0.45162668  0.71469580     0.13470
C1012       C  0.18638231  0.46794085  0.73480239    -0.20890
C1013       C  0.22057177  0.47012375  0.72458464    -0.07410
C1014       C  0.23132035  0.45050616  0.69640962     0.13450
C1015       C  0.26830904  0.44646884  0.68750587    -0.24240
H1016       H  0.21476046  0.42154397  0.65292184     0.14740
H1017       H  0.17790064  0.48211317  0.75669874     0.14770
C1018       C  0.12505552  0.45370752  0.72514033    -0.24190
H1019       H  0.27175885  0.43305106  0.66288705     0.04980
H1020       H  0.28068334  0.43074133  0.70728902     0.08210
H1021       H  0.28135945  0.47135810  0.68572816     0.08210
H1022       H  0.11457358  0.42765757  0.72845306     0.08190
H1023       H  0.11026390  0.46754942  0.70549767     0.08190
H1024       H  0.12175766  0.46746571  0.74959556     0.04970
C1025       C  0.23662598  0.53510152  0.68169775    -0.20840
C1026       C  0.22769292  0.53297179  0.71621795    -0.07400
C1027       C  0.19957391  0.55222870  0.72787840     0.13470
C1028       C  0.17800464  0.56778434  0.70412137    -0.20890
C1029       C  0.18460447  0.56586403  0.66915263    -0.07410
C1030       C  0.21532739  0.55097489  0.65791011     0.13450
C1031       C  0.22428571  0.54878124  0.62071070    -0.24240
H1032       H  0.25865797  0.52140362  0.67266449     0.14740
H1033       H  0.15514081  0.58055550  0.71279632     0.14770
C1034       C  0.19204419  0.55680851  0.76508227    -0.24190
H1035       H  0.24865848  0.53512194  0.61650333     0.04980
H1036       H  0.22703211  0.57479869  0.61000659     0.08210
H1037       H  0.20409557  0.53478799  0.60679300     0.08210
H1038       H  0.21210545  0.57297990  0.77643153     0.08190
H1039       H  0.19088209  0.53217940  0.77856538     0.08190
H1040       H  0.16744599  0.57005518  0.76927335     0.04970
C1041       C  0.76538067  0.68870404  0.47124673    -0.20840
C1042       C  0.77561363  0.72307745  0.47003563    -0.07400
C1043       C  0.80074690  0.73260267  0.44607528     0.13470
C1044       C  0.81876380  0.70713280  0.42871801    -0.20890
C1045       C  0.81197476  0.67248364  0.43424467    -0.07410
C1046       C  0.78343418  0.66320163  0.45391463     0.13450
C1047       C  0.77398301  0.62640668  0.45947566    -0.24240
H1048       H  0.74536521  0.68131838  0.48869635     0.14740
H1049       H  0.83996244  0.71432808  0.41257254     0.14770
C1050       C  0.81023837  0.76894196  0.43886021    -0.24190
H1051       H  0.75134603  0.62380724  0.47618580     0.04980
H1052       H  0.79539096  0.61265903  0.47168444     0.08210
H1053       H  0.76795093  0.61426102  0.43472563     0.08210
H1054       H  0.79558246  0.78702700  0.45435419     0.08190
H1055       H  0.80520121  0.77470885  0.41171539     0.08190
H1056       H  0.83768627  0.77300005  0.44391290     0.04970
C1057       C  0.77092220  0.70593999  0.55086574    -0.20840
C1058       C  0.78575267  0.73243627  0.53199504    -0.07400
C1059       C  0.82098558  0.73880629  0.53589023     0.13470
C1060       C  0.84102033  0.71598441  0.55436610    -0.20890
C1061       C  0.82703678  0.68630253  0.56819698    -0.07410
C1062       C  0.79123219  0.68224937  0.56836060     0.13450
C1063       C  0.77438272  0.65248908  0.58580903    -0.24240
H1064       H  0.74385392  0.70135791  0.54849830     0.14740
H1065       H  0.86832508  0.71979768  0.55502260     0.14770
C1066       C  0.83889917  0.76819739  0.51924187    -0.24190
H1067       H  0.74624440  0.65479809  0.58540648     0.04980
H1068       H  0.78259936  0.65137629  0.61276400     0.08210
H1069       H  0.78100829  0.62827775  0.57288504     0.08210
H1070       H  0.82120241  0.78516596  0.50576802     0.08190
H1071       H  0.85811475  0.75847771  0.50096538     0.08190
H1072       H  0.85199384  0.78365363  0.53890420     0.04970
C1073       C  0.44219894  0.16868600  0.71316098    -0.20840
C1074       C  0.43163527  0.17783743  0.68040512    -0.07400
C1075       C  0.43199395  0.21265657  0.67109087     0.13470
C1076       C  0.44830658  0.23618773  0.69218412    -0.20890
C1077       C  0.46453380  0.22590130  0.72208169    -0.07410
C1078       C  0.45811027  0.19263267  0.73446524     0.13450
C1079       C  0.46793972  0.18225879  0.76991444    -0.24240
H1080       H  0.44006822  0.14237560  0.72125649     0.14740
H1081       H  0.45126157  0.26198885  0.68330542     0.14770
C1082       C  0.41632323  0.22519421  0.63846613    -0.24190
H1083       H  0.46204753  0.15502416  0.77485063     0.04980
H1084       H  0.45320715  0.19764183  0.78837898     0.08210
H1085       H  0.49531679  0.18610025  0.77452090     0.08210
H1086       H  0.38950501  0.21651781  0.63695799     0.08190
H1087       H  0.43079145  0.21575484  0.61619023     0.08190
H1088       H  0.41635886  0.25346426  0.63700927     0.04970
C1089       C  0.67050709  0.20971729  0.56542512    -0.20840
C1090       C  0.68097498  0.17561811  0.56525529    -0.07400
C1091       C  0.71344907  0.16736559  0.55229079     0.13470
C1092       C  0.73239915  0.19280882  0.53576599    -0.20890
C1093       C  0.71876759  0.22549723  0.53030689    -0.07410
C1094       C  0.68866606  0.23468946  0.54778567     0.13450
C1095       C  0.67338991  0.26973992  0.54674702    -0.24240
H1096       H  0.64622930  0.21638444  0.57675057     0.14740
H1097       H  0.75604132  0.18588918  0.52352547     0.14770
C1098       C  0.72680529  0.13139037  0.55273395    -0.24190
H1099       H  0.64718745  0.26844462  0.53641721     0.04980
H1100       H  0.68813361  0.28743836  0.53096208     0.08210
H1101       H  0.67223230  0.28029867  0.57290254     0.08210
H1102       H  0.70936173  0.11439157  0.53843725     0.08190
H1103       H  0.72901188  0.12237755  0.57937499     0.08190
H1104       H  0.75234064  0.12954887  0.54078389     0.04970
C1105       C  0.54927707  0.21638891  0.65740348    -0.20840
C1106       C  0.56288804  0.18639161  0.67096946    -0.07400
C1107       C  0.56316174  0.18213529  0.70671707     0.13470
C1108       C  0.54620254  0.20600007  0.72737455    -0.20890
C1109       C  0.52730377  0.23270766  0.71307097    -0.07410
C1110       C  0.53133108  0.23944664  0.67786888     0.13450
C1111       C  0.51599727  0.26992907  0.66058909    -0.24240
H1112       H  0.55011150  0.22056301  0.63017164     0.14740
H1113       H  0.54521173  0.20195530  0.75452468     0.14770
C1114       C  0.58049618  0.15216397  0.72320473    -0.24190
H1115       H  0.49772261  0.26146930  0.64082999     0.04980
H1116       H  0.53642032  0.28500981  0.64817568     0.08210
H1117       H  0.50272973  0.28688130  0.67862996     0.08210
H1118       H  0.60744323  0.15100913  0.71485038     0.08190
H1119       H  0.56741952  0.12809493  0.71636766     0.08190
H1120       H  0.58012979  0.15417603  0.75135782     0.04970
C1121       C  0.69387522  0.76815248  0.54305331    -0.20840
C1122       C  0.72624505  0.78013501  0.53420367    -0.07400
C1123       C  0.73705521  0.81157120  0.54813198     0.13470
C1124       C  0.71310142  0.83311039  0.56387639    -0.20890
C1125       C  0.67878554  0.82356753  0.56666539    -0.07410
C1126       C  0.66978533  0.78942962  0.55861377     0.13450
C1127       C  0.63467502  0.77523098  0.56502852    -0.24240
H1128       H  0.68618976  0.74307132  0.53483054     0.14740
H1129       H  0.72087049  0.85828528  0.57209858     0.14770
C1130       C  0.77363594  0.82248241  0.54679373    -0.24190
H1131       H  0.63368729  0.74729392  0.56056905     0.04980
H1132       H  0.61596378  0.78697424  0.54754480     0.08210
H1133       H  0.62715212  0.77988333  0.59183874     0.08210
H1134       H  0.78244884  0.82527769  0.52034417     0.08190
H1135       H  0.78943314  0.80329652  0.56010725     0.08190
H1136       H  0.77760493  0.84734089  0.55968623     0.04970
C1137       C  0.66482690  0.21136431  0.43625958    -0.20840
C1138       C  0.67748665  0.17832236  0.43125574    -0.07400
C1139       C  0.71190355  0.17170042  0.43921539     0.13470
C1140       C  0.73100786  0.19700438  0.45601690    -0.20890
C1141       C  0.71594902  0.22778253  0.46668412    -0.07410
C1142       C  0.68325578  0.23585971  0.45425741     0.13450
C1143       C  0.66596372  0.26917688  0.46103925    -0.24240
H1144       H  0.63899337  0.21730010  0.42866901     0.14740
H1145       H  0.75655526  0.19111091  0.46436119     0.14770
C1146       C  0.72773654  0.13735293  0.43289169    -0.24190
H1147       H  0.65998536  0.28189051  0.43656994     0.04980
H1148       H  0.68214436  0.28633871  0.47584523     0.08210
H1149       H  0.64194375  0.26481017  0.47521887     0.08210
H1150       H  0.72693152  0.13139086  0.40532473     0.08190
H1151       H  0.71376344  0.11745976  0.44731869     0.08190
H1152       H  0.75472834  0.13663748  0.44109813     0.04970
C1153       C  0.73305139  0.81363917  0.46217807    -0.20840
C1154       C  0.72459099  0.78008077  0.47058896    -0.07400
C1155       C  0.69441320  0.76599940  0.45695523     0.13470
C1156       C  0.67066249  0.78770447  0.44110122    -0.20890
C1157       C  0.67732237  0.82270657  0.43742204    -0.07410
C1158       C  0.71030048  0.83499103  0.44539526     0.13450
C1159       C  0.72175824  0.87093544  0.43770608    -0.24240
H1160       H  0.75641028  0.82450200  0.47149464     0.14740
H1161       H  0.64628830  0.77762820  0.43315577     0.14770
C1162       C  0.68737891  0.72834105  0.45857243    -0.24190
H1163       H  0.74955076  0.87411558  0.44156489     0.04980
H1164       H  0.70906128  0.88947386  0.45478723     0.08210
H1165       H  0.71629661  0.87704992  0.41074585     0.08210
H1166       H  0.68860690  0.71863295  0.48487198     0.08190
H1167       H  0.70652054  0.71472223  0.44296197     0.08190
H1168       H  0.66191075  0.72205747  0.44816830     0.04970
C1169       C  0.44793804  0.80081312  0.26603521    -0.20840
C1170       C  0.46768745  0.77464803  0.28030180    -0.07400
C1171       C  0.46376695  0.76758831  0.31529804     0.13470
C1172       C  0.44547356  0.79011253  0.33566401    -0.20890
C1173       C  0.43210453  0.82055545  0.32253414    -0.07410
C1174       C  0.43088357  0.82462011  0.28678603     0.13450
C1175       C  0.41364697  0.85462802  0.27034192    -0.24240
H1176       H  0.44852835  0.80471129  0.23886781     0.14740
H1177       H  0.44435726  0.78509275  0.36274640     0.14770
C1178       C  0.48018263  0.73783542  0.33274831    -0.24190
H1179       H  0.41445934  0.85292571  0.24217734     0.04980
H1180       H  0.42659348  0.87862450  0.27776347     0.08210
H1181       H  0.38654252  0.85553452  0.27821736     0.08210
H1182       H  0.49804465  0.74708861  0.35254307     0.08190
H1183       H  0.49435382  0.72175497  0.31492610     0.08190
H1184       H  0.46035686  0.72181701  0.34495600     0.04970
C1185       C  0.44805198  0.72985363  0.20598904    -0.20840
C1186       C  0.46921596  0.71597638  0.23120511    -0.07400
C1187       C  0.46781107  0.68023028  0.23686842     0.13470
C1188       C  0.44975303  0.65940258  0.21436320    -0.20890
C1189       C  0.43399792  0.67300665  0.18563300    -0.07410
C1190       C  0.43130921  0.70876722  0.18240326     0.13450
C1191       C  0.41180287  0.72473849  0.15358780    -0.24240
H1192       H  0.44785347  0.75710179  0.20202400     0.14740
H1193       H  0.45084793  0.63196333  0.21755145     0.14770
C1194       C  0.48656991  0.66250730  0.26500940    -0.24190
H1195       H  0.41100483  0.75293947  0.15586064     0.04980
H1196       H  0.38524232  0.71515303  0.15368618     0.08210
H1197       H  0.42394404  0.71851988  0.12890317     0.08210
H1198       H  0.50073537  0.68022544  0.28123441     0.08190
H1199       H  0.50489822  0.64394822  0.25410103     0.08190
H1200       H  0.46817307  0.64859897  0.28133572     0.04970
C1201       C  0.54923329  0.76890147  0.29986853    -0.20840
C1202       C  0.53070497  0.78249713  0.27261981    -0.07400
C1203       C  0.53578500  0.81723743  0.26418478     0.13470
C1204       C  0.55289441  0.83861002  0.28710681    -0.20890
C1205       C  0.56577914  0.82589619  0.31773674    -0.07410
C1206       C  0.56624946  0.79021432  0.32294574     0.13450
C1207       C  0.58380486  0.77448677  0.35314029    -0.24240
H1208       H  0.54758103  0.74193008  0.30519637     0.14740
H1209       H  0.55435759  0.86571640  0.28200875     0.14770
C1210       C  0.52444896  0.83186779  0.23076334    -0.24190
H1211       H  0.58373100  0.74621714  0.35170653     0.04980
H1212       H  0.57073651  0.78170702  0.37705436     0.08210
H1213       H  0.61067796  0.78310610  0.35401629     0.08210
H1214       H  0.49688723  0.82906299  0.22705773     0.08190
H1215       H  0.53827592  0.81883732  0.20994354     0.08190
H1216       H  0.53040224  0.85946807  0.22881245     0.04970
C1217       C  0.55208971  0.70076424  0.23574647    -0.20840
C1218       C  0.53128314  0.72639667  0.22212643    -0.07400
C1219       C  0.53321262  0.73322752  0.18698637     0.13470
C1220       C  0.55072531  0.71069151  0.16593288    -0.20890
C1221       C  0.56515446  0.68053934  0.17876519    -0.07410
C1222       C  0.56822557  0.67687570  0.21444555     0.13450
C1223       C  0.58614459  0.64699146  0.23038100    -0.24240
H1224       H  0.55237996  0.69683136  0.26293534     0.14740
H1225       H  0.55024936  0.71533260  0.13877370     0.14770
C1226       C  0.51476219  0.76238335  0.17036296    -0.24190
H1227       H  0.58660633  0.64894920  0.25853500     0.04980
H1228       H  0.61286689  0.64594945  0.22131241     0.08210
H1229       H  0.57280870  0.62296051  0.22379341     0.08210
H1230       H  0.53330722  0.77879191  0.15674548     0.08190
H1231       H  0.50104430  0.77842953  0.18892167     0.08190
H1232       H  0.49604885  0.75236522  0.15176490     0.04970
C1233       C  0.30453138  0.76740908  0.46812735    -0.20840
C1234       C  0.27104874  0.78013292  0.46825715    -0.07400
C1235       C  0.26311987  0.80753160  0.44634473     0.13470
C1236       C  0.28951776  0.82488995  0.42989095    -0.20890
C1237       C  0.32360504  0.81569932  0.43486801    -0.07410
C1238       C  0.33109074  0.78515613  0.45215636     0.13450
C1239       C  0.36711822  0.77304799  0.45683156    -0.24240
H1240       H  0.31067456  0.74574336  0.48399138     0.14740
H1241       H  0.28362074  0.84760228  0.41533110     0.14770
C1242       C  0.22762524  0.82044684  0.44096135    -0.24190
H1243       H  0.36825345  0.74900134  0.47166785     0.04980
H1244       H  0.38207814  0.79259956  0.47069312     0.08210
H1245       H  0.37891709  0.76822212  0.43164070     0.08210
H1246       H  0.22600437  0.84773524  0.44817017     0.08190
H1247       H  0.20881270  0.80614647  0.45589161     0.08190
H1248       H  0.22084329  0.81793482  0.41370324     0.04970
C1249       C  0.29190462  0.77436669  0.54661350    -0.20840
C1250       C  0.26384290  0.78962798  0.53066535    -0.07400
C1251       C  0.25721163  0.82447839  0.53719859     0.13470
C1252       C  0.28096445  0.84396260  0.55521103    -0.20890
C1253       C  0.31182843  0.82988417  0.56596395    -0.07410
C1254       C  0.31652474  0.79417832  0.56339616     0.13450
C1255       C  0.34775995  0.77690845  0.57729649    -0.24240
H1256       H  0.29666104  0.74749159  0.54251038     0.14740
H1257       H  0.27660635  0.87110375  0.55806073     0.14770
C1258       C  0.22640280  0.84263098  0.52392195    -0.24190
H1259       H  0.34599043  0.74874181  0.57513010     0.04980
H1260       H  0.35075277  0.78338541  0.60459170     0.08210
H1261       H  0.37069670  0.78499010  0.56300162     0.08210
H1262       H  0.20924636  0.82542596  0.51000026     0.08190
H1263       H  0.23435910  0.86360345  0.50674663     0.08190
H1264       H  0.21190822  0.85366213  0.54551325     0.04970
C1265       C  0.17932345  0.74197185  0.45681755    -0.20840
C1266       C  0.21142116  0.73200305  0.46883251    -0.07400
C1267       C  0.22424872  0.69997672  0.45839338     0.13470
C1268       C  0.20244871  0.67677881  0.44209353    -0.20890
C1269       C  0.16862278  0.68533442  0.43434677    -0.07410
C1270       C  0.15781925  0.71931608  0.43958865     0.13450
C1271       C  0.12290135  0.73154004  0.42953793    -0.24240
H1272       H  0.16960029  0.76676087  0.46302520     0.14740
H1273       H  0.21162872  0.65141619  0.43619848     0.14770
C1274       C  0.26087789  0.69019094  0.46353503    -0.24190
H1275       H  0.11901872  0.75887243  0.43576126     0.04980
H1276       H  0.10313586  0.71677583  0.44330861     0.08210
H1277       H  0.11948588  0.72864405  0.40168611     0.08210
H1278       H  0.26857228  0.69241204  0.49034144     0.08190
H1279       H  0.27714330  0.70700854  0.44782143     0.08190
H1280       H  0.26587525  0.66356780  0.45535459     0.04970
C1281       C  0.15622568  0.71919038  0.55769971    -0.20840
C1282       C  0.16949960  0.68677509  0.56473289    -0.07400
C1283       C  0.20497370  0.68157277  0.56152312     0.13470
C1284       C  0.22489774  0.70687984  0.54603968    -0.20890
C1285       C  0.21004740  0.73641195  0.53259250    -0.07410
C1286       C  0.17640666  0.74442206  0.54242112     0.13450
C1287       C  0.16224967  0.77980342  0.53866617    -0.24240
H1288       H  0.12960744  0.72434685  0.56264981     0.14740
H1289       H  0.25160523  0.70215904  0.54183016     0.14770
C1290       C  0.22195340  0.64935864  0.57367280    -0.24190
H1291       H  0.13550778  0.78132540  0.54764122     0.04980
H1292       H  0.16277250  0.78858768  0.51213725     0.08210
H1293       H  0.17749652  0.79748869  0.55447689     0.08210
H1294       H  0.21384376  0.62726862  0.55810604     0.08190
H1295       H  0.21542916  0.64480549  0.60075792     0.08190
H1296       H  0.25007044  0.65107592  0.57165904     0.04970
C1297       C  0.44607354  0.70262129  0.76865560    -0.20840
C1298       C  0.46674979  0.72854479  0.78192432    -0.07400
C1299       C  0.46459720  0.73589841  0.81720434     0.13470
C1300       C  0.44625272  0.71418630  0.83861459    -0.20890
C1301       C  0.43086201  0.68472860  0.82596815    -0.07410
C1302       C  0.42902107  0.67981484  0.79039025     0.13450
C1303       C  0.41016730  0.64998858  0.77535680    -0.24240
H1304       H  0.44637892  0.69776172  0.74157696     0.14740
H1305       H  0.44680745  0.71860567  0.86582313     0.14770
C1306       C  0.48279270  0.76532667  0.83364886    -0.24190
H1307       H  0.41003716  0.65096999  0.74714901     0.04980
H1308       H  0.38338717  0.65019988  0.78430846     0.08210
H1309       H  0.42237527  0.62569180  0.78292793     0.08210
H1310       H  0.49640232  0.78135388  0.81505891     0.08190
H1311       H  0.50137666  0.75565393  0.85253598     0.08190
H1312       H  0.46405115  0.78179373  0.84692035     0.04970
C1313       C  0.45876842  0.76226628  0.68564126    -0.20840
C1314       C  0.46596511  0.77289359  0.71891841    -0.07400
C1315       C  0.45073163  0.80334253  0.73083463     0.13470
C1316       C  0.43408117  0.82477829  0.70773381    -0.20890
C1317       C  0.43216237  0.81662478  0.67311943    -0.07410
C1318       C  0.44306942  0.78408337  0.66219776     0.13450
C1319       C  0.44125364  0.77328317  0.62547630    -0.24240
H1320       H  0.46828857  0.73804933  0.67693576     0.14740
H1321       H  0.42424050  0.84909579  0.71638577     0.14770
C1322       C  0.45222724  0.81405545  0.76743687    -0.24190
H1323       H  0.45223763  0.74752130  0.62145123     0.04980
H1324       H  0.45577165  0.79144696  0.60939468     0.08210
H1325       H  0.41436294  0.77248397  0.61711504     0.08210
H1326       H  0.47871570  0.81819595  0.77543218     0.08190
H1327       H  0.43990979  0.79438634  0.78342060     0.08190
H1328       H  0.43839747  0.83831699  0.77192528     0.04970
C1329       C  0.54913017  0.73530725  0.79879663    -0.20840
C1330       C  0.52911277  0.72034534  0.77342492    -0.07400
C1331       C  0.53210764  0.68499455  0.76751992     0.13470
C1332       C  0.55020133  0.66506201  0.79049470    -0.20890
C1333       C  0.56373969  0.67908085  0.82044017    -0.07410
C1334       C  0.56532504  0.71504527  0.82340547     0.13450
C1335       C  0.58208330  0.73234433  0.85298199    -0.24240
H1336       H  0.54880065  0.76271077  0.80178100     0.14740
H1337       H  0.55077865  0.63773148  0.78642078     0.14770
C1338       C  0.51430056  0.66690036  0.73887137    -0.24190
H1339       H  0.58076284  0.76054574  0.85097321     0.04980
H1340       H  0.60919197  0.72503957  0.85331064     0.08210
H1341       H  0.56947346  0.72488933  0.87710662     0.08210
H1342       H  0.53329259  0.65321492  0.72304920     0.08190
H1343       H  0.50028568  0.68458594  0.72217857     0.08190
H1344       H  0.49597368  0.64808955  0.74934892     0.04970
C1345       C  0.53910180  0.80529223  0.73234877    -0.20840
C1346       C  0.52974670  0.77318436  0.72020826    -0.07400
C1347       C  0.54383416  0.76188799  0.68907731     0.13470
C1348       C  0.55965233  0.78566370  0.66750520    -0.20890
C1349       C  0.56264691  0.81998980  0.67707806    -0.07410
C1350       C  0.55491167  0.82911140  0.71113625     0.13450
C1351       C  0.56258849  0.86386853  0.72543452    -0.24240
H1352       H  0.53125489  0.81291190  0.75754423     0.14740
H1353       H  0.56799865  0.77773262  0.64246458     0.14770
C1354       C  0.54379975  0.72490037  0.67915772    -0.24190
H1355       H  0.55832969  0.86490974  0.75332985     0.04980
H1356       H  0.54594943  0.88348966  0.71389746     0.08210
H1357       H  0.58967430  0.86984475  0.72058914     0.08210
H1358       H  0.51781218  0.71496993  0.67616400     0.08190
H1359       H  0.55730571  0.71001957  0.69891583     0.08190
H1360       H  0.55728438  0.72069218  0.65469468     0.04970
C1361       C  0.28946783  0.05737903  0.32789349    -0.20840
C1362       C  0.32293612  0.06363634  0.31702715    -0.07400
C1363       C  0.33101782  0.05872393  0.28232557     0.13470
C1364       C  0.30701101  0.04323789  0.26100933    -0.20890
C1365       C  0.27600790  0.03101705  0.27378196    -0.07410
C1366       C  0.26571398  0.04175322  0.30646639     0.13450
C1367       C  0.22978803  0.03714232  0.31885993    -0.24240
H1368       H  0.28222300  0.06346221  0.35378781     0.14740
H1369       H  0.31425722  0.03761178  0.23523878     0.14770
C1370       C  0.36542879  0.06725458  0.26790421    -0.24190
H1371       H  0.22697856  0.04471842  0.34591538     0.04980
H1372       H  0.22125103  0.01048245  0.31646570     0.08210
H1373       H  0.21280957  0.05376095  0.30377979     0.08210
H1374       H  0.38549519  0.05265983  0.28132976     0.08190
H1375       H  0.36989735  0.09495029  0.27062464     0.08190
H1376       H  0.36730019  0.06097193  0.24043996     0.04970
C1377       C  0.26284186  0.95267701  0.30387333    -0.20840
C1378       C  0.27834878  0.96707210  0.27496691    -0.07400
C1379       C  0.31269293  0.95864466  0.26811884     0.13470
C1380       C  0.33138898  0.94062239  0.29219469    -0.20890
C1381       C  0.31769850  0.93213732  0.32403883    -0.07410
C1382       C  0.28227535  0.93612021  0.32909923     0.13450
C1383       C  0.26519403  0.92518017  0.36157116    -0.24240
H1384       H  0.23608158  0.95707872  0.30830480     0.14740
H1385       H  0.35802935  0.93571546  0.28694442     0.14770
C1386       C  0.33150126  0.96955339  0.23664426    -0.24190
H1387       H  0.23740541  0.93014416  0.36098099     0.04980
H1388       H  0.27597039  0.93949363  0.38337373     0.08210
H1389       H  0.26897679  0.89742099  0.36547545     0.08210
H1390       H  0.35317716  0.98625599  0.24367746     0.08190
H1391       H  0.31515790  0.98334898  0.21872388     0.08190
H1392       H  0.34157450  0.94675115  0.22329218     0.04970
C1393       C  0.27242389  0.29322549  0.04905974    -0.20840
C1394       C  0.28788322  0.26703128  0.03010226    -0.07400
C1395       C  0.32335024  0.26180890  0.03407737     0.13470
C1396       C  0.34264548  0.28528472  0.05271879    -0.20890
C1397       C  0.32788297  0.31472117  0.06621275    -0.07410
C1398       C  0.29206970  0.31778908  0.06621696     0.13450
C1399       C  0.27455570  0.34736062  0.08328371    -0.24240
H1400       H  0.24527468  0.29708942  0.04687828     0.14740
H1401       H  0.37004355  0.28242265  0.05367834     0.14770
C1402       C  0.34190587  0.23300446  0.01712906    -0.24190
H1403       H  0.24646207  0.34465540  0.08248259     0.04980
H1404       H  0.28115031  0.37157293  0.07033685     0.08210
H1405       H  0.28239279  0.34874591  0.11034289     0.08210
H1406       H  0.34178387  0.23655484  0.98939401     0.08190
H1407       H  0.33037187  0.20845004  0.02449239     0.08190
H1408       H  0.36902306  0.23196817  0.02488024     0.04970
C1409       C  0.31813263  0.29457986  0.92782720    -0.20840
C1410       C  0.31294376  0.32883691  0.93646141    -0.07400
C1411       C  0.28517993  0.33763989  0.95738528     0.13470
C1412       C  0.26586452  0.31155375  0.97229406    -0.20890
C1413       C  0.27492201  0.27703037  0.96841131    -0.07410
C1414       C  0.29868050  0.26856171  0.94275546     0.13450
C1415       C  0.30346156  0.23261695  0.93045936    -0.24240
H1416       H  0.33843130  0.28810318  0.91030539     0.14740
H1417       H  0.24635602  0.31837300  0.99046798     0.14770
C1418       C  0.27810690  0.37414493  0.96700101    -0.24190
H1419       H  0.32520530  0.23050538  0.91254507     0.04980
H1420       H  0.28036753  0.22470040  0.91644851     0.08210
H1421       H  0.30805370  0.21483501  0.95170415     0.08210
H1422       H  0.27223978  0.38918161  0.94386397     0.08190
H1423       H  0.30062983  0.38524600  0.97990066     0.08190
H1424       H  0.25610799  0.37628794  0.98460676     0.04970
C1425       C  0.31981648  0.43347915  0.20738721    -0.20840
C1426       C  0.31311567  0.43581040  0.17247111    -0.07400
C1427       C  0.28202545  0.44997236  0.16150145     0.13470
C1428       C  0.26063724  0.46531993  0.18550289    -0.20890
C1429       C  0.27017689  0.46801623  0.21978972    -0.07410
C1430       C  0.29803821  0.44851897  0.23136312     0.13450
C1431       C  0.30453457  0.44258002  0.26854614    -0.24240
H1432       H  0.34277060  0.42078146  0.21581990     0.14740
H1433       H  0.23812688  0.47857644  0.17685313     0.14770
C1434       C  0.27278144  0.45209410  0.12439677    -0.24190
H1435       H  0.32803518  0.42747915  0.27270980     0.04980
H1436       H  0.28307243  0.42789266  0.27948019     0.08210
H1437       H  0.30725856  0.46669376  0.28253024     0.08210
H1438       H  0.27047144  0.42605785  0.11362788     0.08190
H1439       H  0.29260018  0.46652800  0.11033085     0.08190
H1440       H  0.24812316  0.46529346  0.12048516     0.04970
C1441       C  0.23401398  0.46530556  0.31555206    -0.20840
C1442       C  0.22424407  0.46835118  0.28132866    -0.07400
C1443       C  0.19626355  0.44891114  0.26984718     0.13470
C1444       C  0.17486325  0.43330910  0.29387116    -0.20890
C1445       C  0.18185300  0.43511194  0.32880207    -0.07410
C1446       C  0.21297697  0.44940437  0.33958559     0.13450
C1447       C  0.22269981  0.45096180  0.37658720    -0.24240
H1448       H  0.25661259  0.47843433  0.32416875     0.14740
H1449       H  0.15189198  0.42059471  0.28546314     0.14770
C1450       C  0.18917547  0.44362448  0.23267027    -0.24190
H1451       H  0.24738904  0.46415663  0.38039098     0.04980
H1452       H  0.22518393  0.42475858  0.38689820     0.08210
H1453       H  0.20305025  0.46513263  0.39114015     0.08210
H1454       H  0.21052299  0.42930966  0.22106857     0.08190
H1455       H  0.18600264  0.46797567  0.21924245     0.08190
H1456       H  0.16570928  0.42842775  0.22860085     0.04970
C1457       C  0.32804583  0.55873611  0.20924102    -0.20840
C1458       C  0.31656335  0.56641746  0.17636791    -0.07400
C1459       C  0.28180897  0.56124247  0.16868283     0.13470
C1460       C  0.26104208  0.54425069  0.19238835    -0.20890
C1461       C  0.27420323  0.53170151  0.22318569    -0.07410
C1462       C  0.30732737  0.54180301  0.23272067     0.13450
C1463       C  0.32243545  0.53357126  0.26674247    -0.24240
H1464       H  0.35417199  0.56420336  0.21613427     0.14740
H1465       H  0.23563450  0.53732983  0.18482385     0.14770
C1466       C  0.26697711  0.57077847  0.13470867    -0.24190
H1467       H  0.33157721  0.55737561  0.27895187     0.04980
H1468       H  0.34421782  0.51586709  0.26350417     0.08210
H1469       H  0.30366247  0.52207647  0.28405993     0.08210
H1470       H  0.28011888  0.55656960  0.11412968     0.08190
H1471       H  0.26976626  0.59861929  0.13052222     0.08190
H1472       H  0.23946795  0.56458452  0.13317989     0.04970
C1473       C  0.23456289  0.54403134  0.30855569    -0.20840
C1474       C  0.22146600  0.53212129  0.27750394    -0.07400
C1475       C  0.18875968  0.54311016  0.26756493     0.13470
C1476       C  0.16814394  0.56019701  0.29095326    -0.20890
C1477       C  0.17917937  0.56655756  0.32423241    -0.07410
C1478       C  0.21367544  0.56055828  0.33242349     0.13450
C1479       C  0.22796469  0.56848644  0.36704542    -0.24240
H1480       H  0.25984895  0.53665994  0.31616475     0.14740
H1481       H  0.14226026  0.56640917  0.28377949     0.14770
C1482       C  0.17382663  0.53552840  0.23331189    -0.24190
H1483       H  0.25531132  0.56170699  0.36889050     0.04980
H1484       H  0.21413263  0.55372487  0.38676978     0.08210
H1485       H  0.22560086  0.59618452  0.37228617     0.08210
H1486       H  0.15118764  0.51886236  0.23622025     0.08190
H1487       H  0.19222167  0.52302235  0.21633371     0.08190
H1488       H  0.16599686  0.55970845  0.22095185     0.04970
C1489       C  0.25941146  0.18442530  0.46545344    -0.20840
C1490       C  0.27017968  0.21847097  0.46814562    -0.07400
C1491       C  0.29812149  0.22913342  0.44807185     0.13470
C1492       C  0.31811718  0.20453320  0.43165028    -0.20890
C1493       C  0.31050958  0.16971396  0.43410125    -0.07410
C1494       C  0.27950430  0.15969772  0.44921085     0.13450
C1495       C  0.26895751  0.12283300  0.45107181    -0.24240
H1496       H  0.23682391  0.17641567  0.47880922     0.14740
H1497       H  0.34104449  0.21234796  0.41843711     0.14770
C1498       C  0.30735288  0.26601911  0.44367981    -0.24190
H1499       H  0.24435361  0.11962450  0.46458991     0.04980
H1500       H  0.28845339  0.10789223  0.46497091     0.08210
H1501       H  0.26593963  0.11243658  0.42501335     0.08210
H1502       H  0.31449352  0.27764900  0.46808933     0.08190
H1503       H  0.28561115  0.27978209  0.43228304     0.08190
H1504       H  0.32935633  0.26930976  0.42626150     0.04970
C1505       C  0.20520581  0.33235464  0.44434944    -0.20840
C1506       C  0.17376072  0.31885883  0.43420653    -0.07400
C1507       C  0.16905238  0.28308123  0.43570774     0.13470
C1508       C  0.19400041  0.26285136  0.45170417    -0.20890
C1509       C  0.22190950  0.27792693  0.46817155    -0.07410
C1510       C  0.22880067  0.31275369  0.46200761     0.13450
C1511       C  0.25956829  0.33096204  0.47574779    -0.24240
H1512       H  0.21030242  0.35935504  0.44132138     0.14740
H1513       H  0.18965943  0.23579130  0.45467567     0.14770
C1514       C  0.13710720  0.26631582  0.42293259    -0.24190
H1515       H  0.25143989  0.35171961  0.49314502     0.04980
H1516       H  0.27421153  0.34227629  0.45440381     0.08210
H1517       H  0.27674811  0.31382954  0.48980655     0.08210
H1518       H  0.13383309  0.27183333  0.39546352     0.08190
H1519       H  0.11479441  0.27588642  0.43735840     0.08190
H1520       H  0.13798359  0.23820611  0.42610683     0.04970
C1521       C  0.31227929  0.23762637  0.53347595    -0.20840
C1522       C  0.27838311  0.22667088  0.53096870    -0.07400
C1523       C  0.26787325  0.19873490  0.55115989     0.13470
C1524       C  0.29249929  0.17898944  0.56770635    -0.20890
C1525       C  0.32720816  0.18669542  0.56501410    -0.07410
C1526       C  0.33707695  0.21762427  0.54953331     0.13450
C1527       C  0.37381466  0.22816793  0.54696643    -0.24240
H1528       H  0.32012576  0.26024952  0.52004713     0.14740
H1529       H  0.28480031  0.15611873  0.58114212     0.14770
C1530       C  0.23113133  0.18924083  0.55551976    -0.24190
H1531       H  0.37686936  0.25254707  0.53295539     0.04980
H1532       H  0.38859672  0.20835530  0.53325156     0.08210
H1533       H  0.38442141  0.23180331  0.57277446     0.08210
H1534       H  0.21963267  0.18206549  0.53106288     0.08190
H1535       H  0.21725742  0.21093582  0.56699624     0.08190
H1536       H  0.22794692  0.16713950  0.57286314     0.04970
C1537       C  0.23458602  0.30298400  0.54811218    -0.20840
C1538       C  0.21940779  0.27513230  0.53153360    -0.07400
C1539       C  0.18472820  0.26817177  0.53799358     0.13470
C1540       C  0.16533578  0.29166943  0.55611638    -0.20890
C1541       C  0.17886501  0.32314116  0.56640474    -0.07410
C1542       C  0.21454495  0.32787782  0.56455257     0.13450
C1543       C  0.23140377  0.35978655  0.57747009    -0.24240
H1544       H  0.26156073  0.30733700  0.54493283     0.14740
H1545       H  0.13843962  0.28649402  0.55938272     0.14770
C1546       C  0.16645370  0.23743521  0.52412913    -0.24190
H1547       H  0.25942989  0.35885210  0.57411844     0.04980
H1548       H  0.22601725  0.36293434  0.60499690     0.08210
H1549       H  0.22187453  0.38225883  0.56326399     0.08210
H1550       H  0.18345046  0.22028005  0.50979691     0.08190
H1551       H  0.14565230  0.24571901  0.50696932     0.08190
H1552       H  0.15527635  0.22262404  0.54543272     0.04970
C1553       C  0.44456853  0.31404263  0.24468922    -0.20840
C1554       C  0.46285240  0.28548800  0.23352500    -0.07400
C1555       C  0.45815392  0.27445448  0.19969434     0.13470
C1556       C  0.44280324  0.29643027  0.17630851    -0.20890
C1557       C  0.43083338  0.32870218  0.18613679    -0.07410
C1558       C  0.42912026  0.33634840  0.22136169     0.13450
C1559       C  0.41333845  0.36870452  0.23464649    -0.24240
H1560       H  0.44551688  0.32103890  0.27121725     0.14740
H1561       H  0.44149794  0.28883988  0.14985868     0.14770
C1562       C  0.46903670  0.23955973  0.18803973    -0.24190
H1563       H  0.41393951  0.36987259  0.26284200     0.04980
H1564       H  0.38632551  0.37011160  0.22665286     0.08210
H1565       H  0.42751516  0.39115351  0.22495224     0.08210
H1566       H  0.45314988  0.22018421  0.20093853     0.08190
H1567       H  0.49600939  0.23460064  0.19367750     0.08190
H1568       H  0.46538980  0.23618475  0.16025965     0.04970
C1569       C  0.43469008  0.21670999  0.33859142    -0.20840
C1570       C  0.43210826  0.18317153  0.32635737    -0.07400
C1571       C  0.44280626  0.17632909  0.29257199     0.13470
C1572       C  0.45954991  0.20179196  0.27403207    -0.20890
C1573       C  0.46672846  0.23367276  0.28835962    -0.07410
C1574       C  0.45200169  0.24195002  0.32010379     0.13450
C1575       C  0.45539116  0.27658658  0.33600414    -0.24240
H1576       H  0.42551646  0.22276790  0.36387390     0.14740
H1577       H  0.47044338  0.19533978  0.24965100     0.14770
C1578       C  0.43784985  0.14210894  0.27593859    -0.24190
H1579       H  0.42971669  0.28760648  0.34005927     0.04980
H1580       H  0.46992371  0.29441707  0.31989247     0.08210
H1581       H  0.46825898  0.27436506  0.36096967     0.08210
H1582       H  0.41080223  0.13468245  0.27806008     0.08190
H1583       H  0.45429706  0.12261620  0.28796102     0.08190
H1584       H  0.44451059  0.14272593  0.24849948     0.04970
C1585       C  0.54677689  0.35014035  0.21716074    -0.20840
C1586       C  0.56216345  0.33409724  0.18937439    -0.07400
C1587       C  0.56353653  0.29811976  0.18856782     0.13470
C1588       C  0.54606773  0.27925902  0.21348336    -0.20890
C1589       C  0.52576946  0.29555720  0.23796401    -0.07410
C1590       C  0.52850266  0.33146075  0.24135812     0.13450
C1591       C  0.51165342  0.35134132  0.26938665    -0.24240
H1592       H  0.54673250  0.37774304  0.21867565     0.14740
H1593       H  0.54610473  0.25175637  0.21204913     0.14770
C1594       C  0.58310114  0.27959457  0.16143987    -0.24190
H1595       H  0.53120620  0.36588857  0.28363108     0.04980
H1596       H  0.49834533  0.33489559  0.28776544     0.08210
H1597       H  0.49307618  0.36956659  0.25843021     0.08210
H1598       H  0.60998001  0.28817042  0.16203162     0.08190
H1599       H  0.57197796  0.28478713  0.13609335     0.08190
H1600       H  0.58268318  0.25157608  0.16541396     0.04970
C1601       C  0.53865814  0.20520099  0.27191481    -0.20840
C1602       C  0.53017308  0.23669981  0.28658221    -0.07400
C1603       C  0.54413629  0.24479555  0.31858341     0.13470
C1604       C  0.55945347  0.21909921  0.33798116    -0.20890
C1605       C  0.56145234  0.18545651  0.32593261    -0.07410
C1606       C  0.55333816  0.17907458  0.29138148     0.13450
C1607       C  0.55868389  0.14471678  0.27502788    -0.24240
H1608       H  0.52967683  0.19948682  0.24653349     0.14740
H1609       H  0.56768643  0.22505382  0.36357920     0.14770
C1610       C  0.54267658  0.28004026  0.33320897    -0.24190
H1611       H  0.55376950  0.14555140  0.24725227     0.04980
H1612       H  0.54097437  0.12565426  0.28598911     0.08210
H1613       H  0.58538044  0.13636953  0.27876364     0.08210
H1614       H  0.53089818  0.29815902  0.31541956     0.08190
H1615       H  0.56890595  0.28912807  0.33832495     0.08190
H1616       H  0.52825065  0.27990195  0.35743480     0.04970
C1617       C  0.05625848  0.16628194  0.21024421    -0.20840
C1618       C  0.06524008  0.18086826  0.17896012    -0.07400
C1619       C  0.06133563  0.21647816  0.17483337     0.13470
C1620       C  0.04417457  0.23520983  0.20023270    -0.20890
C1621       C  0.02894572  0.21870196  0.22810646    -0.07410
C1622       C  0.03743775  0.18421567  0.23426390     0.13450
C1623       C  0.02572890  0.16452093  0.26487578    -0.24240
H1624       H  0.06119983  0.13947797  0.21487750     0.14740
H1625       H  0.04019690  0.26221845  0.19674965     0.14770
C1626       C  0.07314340  0.23450259  0.14323588    -0.24190
H1627       H  0.04809427  0.15396075  0.27844542     0.04980
H1628       H  0.00907026  0.14313978  0.25683545     0.08210
H1629       H  0.01173644  0.18053008  0.28292358     0.08210
H1630       H  0.05980190  0.22413031  0.12065837     0.08190
H1631       H  0.10094556  0.23104706  0.14031550     0.08190
H1632       H  0.06793223  0.26229285  0.14442238     0.04970
C1633       C  0.20611754  0.05984451  0.17167107    -0.20840
C1634       C  0.17266203  0.06481610  0.18309805    -0.07400
C1635       C  0.16453493  0.05625987  0.21703690     0.13470
C1636       C  0.18870343  0.03874003  0.23671704    -0.20890
C1637       C  0.22026930  0.02870741  0.22305567    -0.07410
C1638       C  0.22988349  0.04188676  0.19102852     0.13450
C1639       C  0.26421214  0.03611642  0.17541327    -0.24240
H1640       H  0.21317633  0.06788371  0.14624155     0.14740
H1641       H  0.18130190  0.02954687  0.26152221     0.14770
C1642       C  0.12977909  0.06276417  0.23178638    -0.24190
H1643       H  0.27618114  0.06104611  0.16947475     0.04980
H1644       H  0.26153516  0.02126407  0.15154252     0.08210
H1645       H  0.28134987  0.02245326  0.19263820     0.08210
H1646       H  0.11027259  0.04872854  0.21698519     0.08190
H1647       H  0.12420509  0.09049223  0.23120802     0.08190
H1648       H  0.12797046  0.05416086  0.25861619     0.04970
C1649       C  0.21627544  0.15742533  0.05500298    -0.20840
C1650       C  0.18588983  0.17195396  0.06676674    -0.07400
C1651       C  0.18239063  0.20783991  0.06579425     0.13470
C1652       C  0.20707081  0.22749257  0.04886006    -0.20890
C1653       C  0.23444339  0.21210273  0.03178940    -0.07410
C1654       C  0.24043892  0.17695637  0.03740078     0.13450
C1655       C  0.27102106  0.15875845  0.02344853    -0.24240
H1656       H  0.21995027  0.13010372  0.05685143     0.14740
H1657       H  0.20272913  0.25451169  0.04567637     0.14770
C1658       C  0.15252710  0.22554716  0.08200016    -0.24190
H1659       H  0.28582977  0.14758723  0.04468792     0.04980
H1660       H  0.28790273  0.17603191  0.00913357     0.08210
H1661       H  0.26279232  0.13793509  0.00619900     0.08210
H1662       H  0.15092331  0.21803092  0.10912611     0.08190
H1663       H  0.12858256  0.21877124  0.06881543     0.08190
H1664       H  0.15515512  0.25370717  0.08086302     0.04970
C1665       C  0.17027982  0.20689844  0.94710162    -0.20840
C1666       C  0.18010747  0.17438173  0.93557565    -0.07400
C1667       C  0.21499144  0.16554489  0.93665708     0.13470
C1668       C  0.23773045  0.18720121  0.95347948    -0.20890
C1669       C  0.22696219  0.21742506  0.96919705    -0.07410
C1670       C  0.19326825  0.22854783  0.96368318     0.13450
C1671       C  0.18022811  0.26215300  0.97673244    -0.24240
H1672       H  0.14394844  0.21478038  0.94503204     0.14740
H1673       H  0.26352948  0.17867303  0.95698320     0.14770
C1674       C  0.22844500  0.13238140  0.92265907    -0.24190
H1675       H  0.17007758  0.27731630  0.95521065     0.04980
H1676       H  0.20035865  0.27744416  0.98907379     0.08210
H1677       H  0.15948667  0.25771509  0.99539548     0.08210
H1678       H  0.22260762  0.13053412  0.89512430     0.08190
H1679       H  0.21698482  0.11057446  0.93651362     0.08190
H1680       H  0.25646333  0.13033193  0.92546200     0.04970
C1681       C  0.93998432  0.20738448  0.17329264    -0.20840
C1682       C  0.93209108  0.17416023  0.18408550    -0.07400
C1683       C  0.93541883  0.16640259  0.21910845     0.13470
C1684       C  0.95157540  0.18995024  0.24070087    -0.20890
C1685       C  0.96510226  0.22048004  0.22803495    -0.07410
C1686       C  0.95573390  0.23082575  0.19496518     0.13450
C1687       C  0.96150196  0.26661275  0.18234200    -0.24240
H1688       H  0.93487631  0.21479687  0.14726302     0.14740
H1689       H  0.95631683  0.18302008  0.26682013     0.14770
C1690       C  0.92356437  0.13314108  0.23383129    -0.24190
H1691       H  0.95692476  0.26872971  0.15457806     0.04980
H1692       H  0.98752721  0.27560517  0.18735483     0.08210
H1693       H  0.94327309  0.28389681  0.19507365     0.08210
H1694       H  0.93698686  0.11152712  0.22153971     0.08190
H1695       H  0.89575756  0.13102550  0.23001843     0.08190
H1696       H  0.92846389  0.13156255  0.26157634     0.04970
C1697       C  0.18580420  0.96027720  0.23861611    -0.20840
C1698       C  0.21923204  0.96471411  0.22675288    -0.07400
C1699       C  0.22935936  0.94639512  0.19746518     0.13470
C1700       C  0.20456488  0.93096620  0.17712365    -0.20890
C1701       C  0.17005569  0.93297551  0.18554928    -0.07410
C1702       C  0.16065093  0.94593637  0.21774934     0.13450
C1703       C  0.12405685  0.94796541  0.22887825    -0.24240
H1704       H  0.17840301  0.97203485  0.26238348     0.14740
H1705       H  0.21194882  0.91907193  0.15335192     0.14770
C1706       C  0.26588079  0.94275963  0.18718824    -0.24190
H1707       H  0.12138259  0.96030113  0.25414954     0.04980
H1708       H  0.11326650  0.92196300  0.23079472     0.08210
H1709       H  0.10920564  0.96318395  0.21032012     0.08210
H1710       H  0.28025125  0.93092693  0.20827896     0.08190
H1711       H  0.27667494  0.96762616  0.18025662     0.08190
H1712       H  0.26887688  0.92594728  0.16467036     0.04970
C1713       C  0.03832117  0.76651989  0.80254201    -0.20840
C1714       C  0.03060030  0.78296123  0.77159508    -0.07400
C1715       C  0.04506851  0.81554048  0.76568290     0.13470
C1716       C  0.06282727  0.83189437  0.79167051    -0.20890
C1717       C  0.06454227  0.81823158  0.82448223    -0.07410
C1718       C  0.05389641  0.78422446  0.82960726     0.13450
C1719       C  0.05599681  0.76761255  0.86400631    -0.24240
H1720       H  0.02819164  0.74125467  0.80709354     0.14740
H1721       H  0.07248283  0.85740287  0.78708277     0.14770
C1722       C  0.04099998  0.83543728  0.73342596    -0.24190
H1723       H  0.04589907  0.74118102  0.86355395     0.04980
H1724       H  0.04083209  0.78239754  0.88271745     0.08210
H1725       H  0.08290840  0.76651465  0.87237389     0.08210
H1726       H  0.02609914  0.82167316  0.71441561     0.08190
H1727       H  0.06642636  0.84086493  0.72238107     0.08190
H1728       H  0.02842473  0.86014139  0.73885811     0.04970
C1729       C  0.95832358  0.76689869  0.80135832    -0.20840
C1730       C  0.96710957  0.78322550  0.77065717    -0.07400
C1731       C  0.95306881  0.81584580  0.76424718     0.13470
C1732       C  0.93532576  0.83273867  0.78999699    -0.20890
C1733       C  0.93250719  0.81904685  0.82276025    -0.07410
C1734       C  0.94224369  0.78477785  0.82800361     0.13450
C1735       C  0.93862137  0.76791459  0.86215175    -0.24240
H1736       H  0.96794044  0.74148742  0.80612233     0.14740
H1737       H  0.92623827  0.85840067  0.78519813     0.14770
C1738       C  0.95722881  0.83485704  0.73146444    -0.24190
H1739       H  0.94824826  0.74131315  0.86181003     0.04980
H1740       H  0.91143036  0.76714197  0.86951930     0.08210
H1741       H  0.95330972  0.78226269  0.88151703     0.08210
H1742       H  0.97216327  0.82051745  0.71280192     0.08190
H1743       H  0.96979493  0.85971245  0.73615914     0.08190
H1744       H  0.93181157  0.83992604  0.72033068     0.04970
C1745       C  0.03672830  0.69359055  0.73379511    -0.20840
C1746       C  0.03134929  0.72641519  0.72023674    -0.07400
C1747       C  0.04895011  0.73489362  0.68995054     0.13470
C1748       C  0.06423987  0.70909762  0.67069155    -0.20890
C1749       C  0.06357111  0.67509706  0.68122904    -0.07410
C1750       C  0.05152212  0.66742936  0.71417904     0.13450
C1751       C  0.05130172  0.63147223  0.72751241    -0.24240
H1752       H  0.02595743  0.68736370  0.75832511     0.14740
H1753       H  0.07570325  0.71531329  0.64637922     0.14770
C1754       C  0.05356546  0.77084617  0.67816363    -0.24190
H1755       H  0.03986273  0.62996300  0.75329350     0.04980
H1756       H  0.07773129  0.62171238  0.72907795     0.08210
H1757       H  0.03616210  0.61491029  0.71036107     0.08210
H1758       H  0.06862450  0.78465269  0.69747004     0.08190
H1759       H  0.02900720  0.78324303  0.67368440     0.08190
H1760       H  0.06806378  0.77233301  0.65395982     0.04970
C1761       C  0.95967086  0.69512602  0.73477942    -0.20840
C1762       C  0.96703399  0.72688795  0.71969630    -0.07400
C1763       C  0.95141427  0.73426757  0.68816221     0.13470
C1764       C  0.93543606  0.70816889  0.66997238    -0.20890
C1765       C  0.93426298  0.67468548  0.68220773    -0.07410
C1766       C  0.94477798  0.66841420  0.71595043     0.13450
C1767       C  0.94326019  0.63330820  0.73118690    -0.24240
H1768       H  0.96916917  0.68991727  0.76003564     0.14740
H1769       H  0.92516510  0.71362297  0.64499571     0.14770
C1770       C  0.94998823  0.76947570  0.67359689    -0.24190
H1771       H  0.95379764  0.63282081  0.75734832     0.04980
H1772       H  0.95825422  0.61525795  0.71543157     0.08210
H1773       H  0.91649256  0.62473226  0.73255718     0.08210
H1774       H  0.97549756  0.78050269  0.67122011     0.08190
H1775       H  0.93354386  0.78524318  0.69011026     0.08190
H1776       H  0.93842343  0.76986997  0.64786782     0.04970
C1777       C  0.81484444  0.03390052  0.76245232    -0.20840
C1778       C  0.78026457  0.03197373  0.77127154    -0.07400
C1779       C  0.76867912  0.05188632  0.79894211     0.13470
C1780       C  0.79255550  0.06700480  0.82076578    -0.20890
C1781       C  0.82759427  0.06361115  0.81498021    -0.07410
C1782       C  0.83883948  0.04816255  0.78452443     0.13450
C1783       C  0.87601821  0.04314285  0.77671690    -0.24240
H1784       H  0.82384145  0.02020409  0.74036108     0.14740
H1785       H  0.78387682  0.08040652  0.84326044     0.14770
C1786       C  0.73151904  0.05794707  0.80547486    -0.24190
H1787       H  0.88000404  0.02859466  0.75282278     0.04980
H1788       H  0.88838648  0.02874084  0.79759815     0.08210
H1789       H  0.88848043  0.06818244  0.77356437     0.08210
H1790       H  0.71752456  0.03380369  0.80817602     0.08190
H1791       H  0.72079469  0.07285219  0.78413545     0.08190
H1792       H  0.72729501  0.07296623  0.82903033     0.04970
C1793       C  0.80772095  0.95600805  0.76366251    -0.20840
C1794       C  0.77663317  0.96832184  0.77644748    -0.07400
C1795       C  0.76673892  0.95833896  0.80949130     0.13470
C1796       C  0.79003075  0.94147379  0.83043301    -0.20890
C1797       C  0.82315728  0.93386856  0.81931497    -0.07410
C1798       C  0.83126315  0.93913141  0.78463318     0.13450
C1799       C  0.86541820  0.92970119  0.77002282    -0.24240
H1800       H  0.81544694  0.96310806  0.73825798     0.14740
H1801       H  0.78273018  0.93598378  0.85645122     0.14770
C1802       C  0.73248613  0.96657338  0.82422010    -0.24190
H1803       H  0.86712486  0.93573685  0.74249792     0.04980
H1804       H  0.86973814  0.90190143  0.77297501     0.08210
H1805       H  0.88581864  0.94412899  0.78314830     0.08210
H1806       H  0.71537480  0.97786329  0.80519403     0.08190
H1807       H  0.73539019  0.98445611  0.84589713     0.08190
H1808       H  0.72022337  0.94280101  0.83340175     0.04970
C1809       C  0.70737761  0.06222917  0.67184187    -0.20840
C1810       C  0.67309375  0.06533571  0.68139780    -0.07400
C1811       C  0.66329065  0.05497147  0.71439205     0.13470
C1812       C  0.68716620  0.03860578  0.73523000    -0.20890
C1813       C  0.72011154  0.03083357  0.72358575    -0.07410
C1814       C  0.73102239  0.04542565  0.69257986     0.13450
C1815       C  0.76697219  0.04298185  0.67995934    -0.24240
H1816       H  0.71545905  0.07139723  0.64711172     0.14740
H1817       H  0.67893830  0.02883111  0.75958135     0.14770
C1818       C  0.62714155  0.05805377  0.72676699    -0.24190
H1819       H  0.76765209  0.02870155  0.65560778     0.04980
H1820       H  0.78382814  0.03037202  0.69841739     0.08210
H1821       H  0.77715860  0.06901142  0.67560134     0.08210
H1822       H  0.60986423  0.04376346  0.70961116     0.08190
H1823       H  0.61962427  0.08527681  0.72755112     0.08190
H1824       H  0.62393330  0.04751601  0.75276968     0.04970
C1825       C  0.68660451  0.96080435  0.73824809    -0.20840
C1826       C  0.71976138  0.96689186  0.72636266    -0.07400
C1827       C  0.73006779  0.95083032  0.69589196     0.13470
C1828       C  0.70554286  0.93540072  0.67513608    -0.20890
C1829       C  0.67106665  0.93491451  0.68439674    -0.07410
C1830       C  0.66176558  0.94620924  0.71724986     0.13450
C1831       C  0.62538935  0.94638282  0.72921499    -0.24240
H1832       H  0.67872234  0.97160934  0.76222669     0.14740
H1833       H  0.71311548  0.92498442  0.65074834     0.14770
C1834       C  0.76670305  0.94945451  0.68507889    -0.24190
H1835       H  0.62271603  0.95774029  0.75493821     0.04980
H1836       H  0.61582514  0.91995106  0.73059717     0.08210
H1837       H  0.60948234  0.96155406  0.71152250     0.08210
H1838       H  0.78074218  0.93270281  0.70279794     0.08190
H1839       H  0.77833681  0.97497253  0.68492473     0.08190
H1840       H  0.76964380  0.93848778  0.65921790     0.04970
C1841       C  0.75950401  0.80698489  0.04812861    -0.20840
C1842       C  0.77373320  0.77907694  0.03078468    -0.07400
C1843       C  0.80801440  0.77058809  0.03764260     0.13470
C1844       C  0.82811380  0.79292244  0.05641046    -0.20890
C1845       C  0.81567079  0.82450659  0.06761101    -0.07410
C1846       C  0.78018941  0.83044307  0.06580957     0.13450
C1847       C  0.76413887  0.86189322  0.08074434    -0.24240
H1848       H  0.73264803  0.81191257  0.04591520     0.14740
H1849       H  0.85473001  0.78658154  0.05982673     0.14770
C1850       C  0.82521896  0.73916419  0.02424243    -0.24190
H1851       H  0.73606992  0.86170327  0.07773891     0.04980
H1852       H  0.77398090  0.88496493  0.06772865     0.08210
H1853       H  0.76984202  0.86333248  0.10833423     0.08210
H1854       H  0.84678653  0.74646575  0.00749772     0.08190
H1855       H  0.80783541  0.72308581  0.00964816     0.08190
H1856       H  0.83505030  0.72378196  0.04576402     0.04970
C1857       C  0.79762500  0.76618302  0.95164177    -0.20840
C1858       C  0.76879560  0.78036456  0.96708642    -0.07400
C1859       C  0.75952608  0.81412948  0.95854337     0.13470
C1860       C  0.78308468  0.83494926  0.94174116    -0.20890
C1861       C  0.81527745  0.82253299  0.93286022    -0.07410
C1862       C  0.82146752  0.78704530  0.93507986     0.13450
C1863       C  0.85317254  0.77110718  0.92061070    -0.24240
H1864       H  0.80320190  0.73946015  0.95532454     0.14740
H1865       H  0.77726725  0.86168069  0.93799796     0.14770
C1866       C  0.72519982  0.82867994  0.96745484    -0.24190
H1867       H  0.85237947  0.74286576  0.92232701     0.04980
H1868       H  0.87598761  0.77973336  0.93468322     0.08210
H1869       H  0.85555242  0.77810599  0.89338890     0.08210
H1870       H  0.72108759  0.82917113  0.99506935     0.08190
H1871       H  0.70489665  0.81334587  0.95543115     0.08190
H1872       H  0.72240620  0.85525782  0.95818450     0.04970
C1873       C  0.72802370  0.70571846  0.05444570    -0.20840
C1874       C  0.71547180  0.73063942  0.03245045    -0.07400
C1875       C  0.68060525  0.73937990  0.03429542     0.13470
C1876       C  0.65821369  0.71778669  0.05170646    -0.20890
C1877       C  0.67018042  0.68803312  0.06715583    -0.07410
C1878       C  0.70563325  0.68343642  0.07101934     0.13450
C1879       C  0.71995155  0.65439694  0.09129305    -0.24240
H1880       H  0.75512046  0.70117018  0.05561482     0.14740
H1881       H  0.63108754  0.72247791  0.05047564     0.14770
C1882       C  0.66666670  0.77073670  0.01723599    -0.24190
H1883       H  0.74805311  0.65607458  0.09347669     0.04980
H1884       H  0.71393346  0.62984623  0.07874142     0.08210
H1885       H  0.70904231  0.65484899  0.11733108     0.08210
H1886       H  0.67014078  0.76956538  0.98949345     0.08190
H1887       H  0.67962394  0.79365734  0.02727892     0.08190
H1888       H  0.63902446  0.77380610  0.02213724     0.04970
C1889       C  0.70383712  0.72946148  0.94646549    -0.20840
C1890       C  0.72608655  0.71634709  0.97098014    -0.07400
C1891       C  0.73126179  0.68043160  0.97169415     0.13470
C1892       C  0.71009122  0.65900677  0.95272075    -0.20890
C1893       C  0.68369673  0.67225684  0.93316203    -0.07410
C1894       C  0.68184827  0.70788252  0.92828872     0.13450
C1895       C  0.65642922  0.72317467  0.90436236    -0.24240
H1896       H  0.70135073  0.75668186  0.94367904     0.14740
H1897       H  0.71249228  0.63160731  0.95552844     0.14770
C1898       C  0.75804015  0.66321467  0.99270921    -0.24190
H1899       H  0.65917440  0.75129040  0.90257671     0.04980
H1900       H  0.63021198  0.71762555  0.91315301     0.08210
H1901       H  0.66051406  0.71223963  0.87867121     0.08210
H1902       H  0.74588979  0.64624069  0.01176581     0.08190
H1903       H  0.77438943  0.68142015  0.00595065     0.08190
H1904       H  0.77465051  0.64765086  0.97595567     0.04970
C1905       C  0.18928204  0.76665453  0.04700359    -0.20840
C1906       C  0.22082980  0.77723253  0.03435328    -0.07400
C1907       C  0.23357620  0.80936453  0.04447657     0.13470
C1908       C  0.21150629  0.83261455  0.06054369    -0.20890
C1909       C  0.17785997  0.82339632  0.06831240    -0.07410
C1910       C  0.16793683  0.78894697  0.06455581     0.13450
C1911       C  0.13466454  0.77543192  0.07824972    -0.24240
H1912       H  0.18020054  0.74136267  0.04148299     0.14740
H1913       H  0.22004228  0.85839411  0.06550827     0.14770
C1914       C  0.27040060  0.81868583  0.03971616    -0.24190
H1915       H  0.13332761  0.74721347  0.07641120     0.04980
H1916       H  0.11286738  0.78564246  0.06365961     0.08210
H1917       H  0.13205938  0.78234246  0.10549249     0.08210
H1918       H  0.27808595  0.81785067  0.01284064     0.08190
H1919       H  0.28642996  0.80053933  0.05416624     0.08190
H1920       H  0.27585064  0.84471015  0.04937808     0.04970
C1921       C  0.23375461  0.80144511  0.95794253    -0.20840
C1922       C  0.21987973  0.77120898  0.97095745    -0.07400
C1923       C  0.18702959  0.76172043  0.96035998     0.13470
C1924       C  0.16631408  0.78607488  0.94428841    -0.20890
C1925       C  0.17830189  0.81925342  0.93725897    -0.07410
C1926       C  0.21335181  0.82600226  0.94190703     0.13450
C1927       C  0.22916492  0.85962038  0.93243600    -0.24240
H1928       H  0.26009928  0.80720224  0.96281283     0.14740
H1929       H  0.14020720  0.77954079  0.93840291     0.14770
C1930       C  0.17427115  0.72584369  0.96514186    -0.24190
H1931       H  0.25677906  0.86031246  0.93824467     0.04980
H1932       H  0.21686683  0.88059822  0.94683757     0.08210
H1933       H  0.22623253  0.86386557  0.90478724     0.08210
H1934       H  0.17411497  0.71833487  0.99212127     0.08190
H1935       H  0.19112713  0.70802992  0.95110839     0.08190
H1936       H  0.14805936  0.72272960  0.95517272     0.04970
C1937       C  0.29307964  0.68417930  0.07933926    -0.20840
C1938       C  0.32717431  0.68833274  0.06985772    -0.07400
C1939       C  0.33640491  0.71581282  0.04869411     0.13470
C1940       C  0.31070629  0.73437242  0.03254602    -0.20890
C1941       C  0.27629058  0.72616748  0.03745682    -0.07410
C1942       C  0.26750837  0.70417783  0.06455683     0.13450
C1943       C  0.23203271  0.70224607  0.07873917    -0.24240
H1944       H  0.28639062  0.66446383  0.09745784     0.14740
H1945       H  0.31751657  0.75251376  0.01289773     0.14770
C1946       C  0.37302898  0.72344765  0.04043876    -0.24190
H1947       H  0.22994468  0.68263841  0.09898538     0.04980
H1948       H  0.21318814  0.69604304  0.05904932     0.08210
H1949       H  0.22547310  0.72712153  0.09038161     0.08210
H1950       H  0.38501994  0.70103696  0.02806593     0.08190
H1951       H  0.38693922  0.72970725  0.06416322     0.08190
H1952       H  0.37547680  0.74551401  0.02293382     0.04970
C1953       C  0.28390434  0.72288498  0.95096222    -0.20840
C1954       C  0.26428067  0.70870963  0.97735641    -0.07400
C1955       C  0.26338277  0.67270674  0.98051785     0.13470
C1956       C  0.28642496  0.65271781  0.96217366    -0.20890
C1957       C  0.30869451  0.66742341  0.93870158    -0.07410
C1958       C  0.30548699  0.70236767  0.93097461     0.13450
C1959       C  0.32496331  0.71785969  0.90190199    -0.24240
H1960       H  0.28461491  0.75023735  0.94771517     0.14740
H1961       H  0.28786120  0.62557518  0.96721904     0.14770
C1962       C  0.23877159  0.65462816  0.00342884    -0.24190
H1963       H  0.31862822  0.74523061  0.89854224     0.04980
H1964       H  0.31840018  0.70429936  0.87800699     0.08210
H1965       H  0.35269663  0.71570870  0.90641256     0.08210
H1966       H  0.21756843  0.67159098  0.01057692     0.08190
H1967       H  0.25208352  0.64467253  0.02621072     0.08190
H1968       H  0.22711301  0.63288786  0.98963353     0.04970
C1969       C  0.78921088  0.17306120  0.06619525    -0.20840
C1970       C  0.82321242  0.18390531  0.06570488    -0.07400
C1971       C  0.83103558  0.21610041  0.05175485     0.13470
C1972       C  0.80538058  0.23433916  0.03480469    -0.20890
C1973       C  0.77241192  0.22086050  0.03087730    -0.07410
C1974       C  0.76369698  0.19120518  0.04927814     0.13450
C1975       C  0.72788123  0.17792372  0.05096155    -0.24240
H1976       H  0.78289396  0.14907703  0.07835630     0.14740
H1977       H  0.81213673  0.25751814  0.02158514     0.14770
C1978       C  0.86675955  0.22990896  0.05186925    -0.24190
H1979       H  0.72686381  0.15166946  0.06144943     0.04980
H1980       H  0.71589477  0.17740650  0.02568177     0.08210
H1981       H  0.71298101  0.19433101  0.06827793     0.08210
H1982       H  0.88393256  0.21225573  0.03800444     0.08190
H1983       H  0.87567101  0.23288584  0.07845865     0.08190
H1984       H  0.86831448  0.25522481  0.03934537     0.04970
C1985       C  0.79801038  0.23144798  0.95634515    -0.20840
C1986       C  0.76691014  0.21758647  0.96714335    -0.07400
C1987       C  0.75766831  0.18517105  0.95424505     0.13470
C1988       C  0.78194664  0.16500402  0.93760998    -0.20890
C1989       C  0.81534461  0.17646518  0.93295516    -0.07410
C1990       C  0.82275757  0.21117565  0.94023467     0.13450
C1991       C  0.85691036  0.22692156  0.93255665    -0.24240
H1992       H  0.80451468  0.25713632  0.96402055     0.14740
H1993       H  0.77513503  0.13926837  0.93024119     0.14770
C1994       C  0.72263912  0.17078182  0.95751919    -0.24190
H1995       H  0.85675656  0.25488983  0.93691845     0.04980
H1996       H  0.86371028  0.22244601  0.90552526     0.08210
H1997       H  0.87671726  0.21607131  0.94939944     0.08210
H1998       H  0.71267411  0.16435519  0.93191742     0.08190
H1999       H  0.70531421  0.18947567  0.96862540     0.08190
H2000       H  0.72308751  0.14734309  0.97329180     0.04970
C2001       C  0.68621749  0.25998315  0.05060604    -0.20840
C2002       C  0.71561864  0.27106861  0.03378749    -0.07400
C2003       C  0.72657747  0.30491282  0.03946121     0.13470
C2004       C  0.70448642  0.32812612  0.05531928    -0.20890
C2005       C  0.67200284  0.31816516  0.06656245    -0.07410
C2006       C  0.66376757  0.28302130  0.06610100     0.13450
C2007       C  0.63050532  0.26952552  0.07941487    -0.24240
H2008       H  0.67856894  0.23377147  0.04847590     0.14740
H2009       H  0.71214331  0.35455913  0.05764759     0.14770
C2010       C  0.76150137  0.31671614  0.02909098    -0.24190
H2011       H  0.62841301  0.24144874  0.07649671     0.04980
H2012       H  0.60898396  0.28116799  0.06539077     0.08210
H2013       H  0.62856167  0.27533127  0.10682983     0.08210
H2014       H  0.76613645  0.31263375  0.00175768     0.08190
H2015       H  0.78072127  0.30249933  0.04393074     0.08190
H2016       H  0.76527837  0.34425430  0.03441269     0.04970
C2017       C  0.72220308  0.29070714  0.95142996    -0.20840
C2018       C  0.70679169  0.26501672  0.97102731    -0.07400
C2019       C  0.67109307  0.26027339  0.96801546     0.13470
C2020       C  0.65175739  0.28420333  0.95023581    -0.20890
C2021       C  0.66671675  0.31335877  0.93636393    -0.07410
C2022       C  0.70253452  0.31576407  0.93512121     0.13450
C2023       C  0.72002012  0.34498080  0.91742139    -0.24240
H2024       H  0.74957179  0.29325364  0.95166452     0.14740
H2025       H  0.62429936  0.28157063  0.94998156     0.14770
C2026       C  0.65174736  0.23144807  0.98428978    -0.24190
H2027       H  0.74808284  0.34187288  0.91746478     0.04980
H2028       H  0.71412906  0.36935524  0.93041860     0.08210
H2029       H  0.71143654  0.34635247  0.89059271     0.08210
H2030       H  0.66803492  0.21376523  0.99858084     0.08190
H2031       H  0.63856572  0.21650808  0.96429370     0.08190
H2032       H  0.63237429  0.24183698  0.00204915     0.04970
C2033       C  0.80106627  0.03710836  0.22825122    -0.20840
C2034       C  0.76785919  0.03112768  0.21700458    -0.07400
C2035       C  0.75708338  0.04725189  0.18673190     0.13470
C2036       C  0.78134652  0.06311921  0.16558560    -0.20890
C2037       C  0.81601431  0.06370966  0.17438431    -0.07410
C2038       C  0.82535790  0.05263519  0.20747312     0.13450
C2039       C  0.86114690  0.05502571  0.22094320    -0.24240
H2040       H  0.80920310  0.02595413  0.25204671     0.14740
H2041       H  0.77331289  0.07330707  0.14129711     0.14770
C2042       C  0.72044190  0.04830999  0.17615047    -0.24190
H2043       H  0.86240245  0.04935235  0.24857079     0.04980
H2044       H  0.87087179  0.08116623  0.21716535     0.08210
H2045       H  0.87783784  0.03635801  0.20788599     0.08210
H2046       H  0.70369770  0.03537878  0.19467682     0.08190
H2047       H  0.71730080  0.03625654  0.15085368     0.08190
H2048       H  0.71207523  0.07526363  0.17437017     0.04970
C2049       C  0.79885823  0.95762329  0.23447500    -0.20840
C2050       C  0.76856726  0.96772587  0.21828438    -0.07400
C2051       C  0.76246305  0.95613159  0.18481289     0.13470
C2052       C  0.78785638  0.93852311  0.16742789    -0.20890
C2053       C  0.82049556  0.93462824  0.18114857    -0.07410
C2054       C  0.82557280  0.94239847  0.21589831     0.13450
C2055       C  0.85960320  0.93764896  0.23266883    -0.24240
H2056       H  0.80342432  0.96595532  0.26032549     0.14740
H2057       H  0.78308524  0.93101956  0.14132066     0.14770
C2058       C  0.73071732  0.96419928  0.16518819    -0.24190
H2059       H  0.85903616  0.94553317  0.25977380     0.04980
H2060       H  0.87907394  0.95336232  0.21952325     0.08210
H2061       H  0.86703185  0.91037971  0.23163731     0.08210
H2062       H  0.71234133  0.97911772  0.18014689     0.08190
H2063       H  0.71814202  0.94012929  0.15731565     0.08190
H2064       H  0.73740455  0.97892301  0.14203818     0.04970
C2065       C  0.70052856  0.06815027  0.31702472    -0.20840
C2066       C  0.66535876  0.06522358  0.31190304    -0.07400
C2067       C  0.65329827  0.04881093  0.28233959     0.13470
C2068       C  0.67657341  0.03234834  0.26094752    -0.20890
C2069       C  0.71141619  0.03131668  0.26854291    -0.07410
C2070       C  0.72380042  0.05211876  0.29515078     0.13450
C2071       C  0.76124049  0.05766152  0.30070558    -0.24240
H2072       H  0.70976050  0.08205285  0.33896518     0.14740
H2073       H  0.66696285  0.01729883  0.24011028     0.14770
C2074       C  0.61584400  0.04555999  0.27488050    -0.24190
H2075       H  0.76618718  0.07254991  0.32419020     0.04980
H2076       H  0.77161976  0.07251230  0.27911499     0.08210
H2077       H  0.77516363  0.03331171  0.30276447     0.08210
H2078       H  0.60455756  0.07123064  0.27139301     0.08190
H2079       H  0.60285640  0.03223386  0.29614287     0.08190
H2080       H  0.61107321  0.03075792  0.25130143     0.04970
C2081       C  0.73185241  0.96948280  0.31281255    -0.20840
C2082       C  0.72110396  0.96908945  0.27869070    -0.07400
C2083       C  0.69389433  0.94718981  0.26987083     0.13470
C2084       C  0.67502232  0.93123467  0.29565949    -0.20890
C2085       C  0.68265800  0.93627000  0.33008090    -0.07410
C2086       C  0.71261089  0.95403311  0.33873280     0.13450
C2087       C  0.72262762  0.95965292  0.37524029    -0.24240
H2088       H  0.75341512  0.98489926  0.31985481     0.14740
H2089       H  0.65271496  0.91643739  0.28900660     0.14770
C2090       C  0.68377046  0.94100279  0.23365263    -0.24190
H2091       H  0.74615885  0.97514982  0.37739073     0.04980
H2092       H  0.72741210  0.93477535  0.38769324     0.08210
H2093       H  0.70201238  0.97330432  0.38892459     0.08210
H2094       H  0.70532656  0.92909335  0.22000229     0.08190
H2095       H  0.67613929  0.96501369  0.22127865     0.08190
H2096       H  0.66188639  0.92322053  0.23172512     0.04970
C2097       C  0.04939797  0.78624603  0.16407175    -0.20840
C2098       C  0.06353877  0.81698960  0.17538786    -0.07400
C2099       C  0.06629072  0.82285247  0.21073745     0.13470
C2100       C  0.05039930  0.80031100  0.23345598    -0.20890
C2101       C  0.03006618  0.77352449  0.22151200    -0.07410
C2102       C  0.03273250  0.76433589  0.18681412     0.13450
C2103       C  0.01684428  0.73242215  0.17285568    -0.24240
H2104       H  0.04877056  0.78062474  0.13709871     0.14740
H2105       H  0.05081121  0.80611710  0.26022617     0.14770
C2106       C  0.08475799  0.85345612  0.22462067    -0.24190
H2107       H  0.03675162  0.71662819  0.16050451     0.04980
H2108       H  0.99731537  0.73911737  0.15364618     0.08210
H2109       H  0.00489199  0.71678152  0.19301774     0.08210
H2110       H  0.07127300  0.87716593  0.21742551     0.08190
H2111       H  0.11112132  0.85406339  0.21451508     0.08190
H2112       H  0.08619064  0.85285229  0.25280126     0.04970
C2113       C  0.94820706  0.76730774  0.20277840    -0.20840
C2114       C  0.96748407  0.78302824  0.22846984    -0.07400
C2115       C  0.96374971  0.81850525  0.23363757     0.13470
C2116       C  0.94407758  0.83734972  0.21111732    -0.20890
C2117       C  0.93107947  0.82283151  0.18121390    -0.07410
C2118       C  0.93108674  0.78688675  0.17810324     0.13450
C2119       C  0.91535736  0.76912054  0.14808892    -0.24240
H2120       H  0.94992167  0.73997487  0.19955430     0.14740
H2121       H  0.94236733  0.86464431  0.21516126     0.14770
C2122       C  0.98234260  0.83848083  0.26048272    -0.24190
H2123       H  0.91725378  0.74097264  0.15035258     0.04980
H2124       H  0.92866943  0.77668822  0.12437321     0.08210
H2125       H  0.88801180  0.77587209  0.14632562     0.08210
H2126       H  0.99855858  0.85815497  0.24822856     0.08190
H2127       H  0.99896447  0.82264072  0.27627563     0.08190
H2128       H  0.96369453  0.85130066  0.27740111     0.04970
C2129       C  0.03451793  0.69175646  0.26466368    -0.20840
C2130       C  0.02870167  0.72424301  0.27865292    -0.07400
C2131       C  0.04540509  0.73315403  0.30912604     0.13470
C2132       C  0.06283258  0.70806819  0.32723977    -0.20890
C2133       C  0.06324798  0.67407815  0.31623699    -0.07410
C2134       C  0.05109485  0.66622187  0.28340175     0.13450
C2135       C  0.05259683  0.63056165  0.26932160    -0.24240
H2136       H  0.02257229  0.68507818  0.24083680     0.14740
H2137       H  0.07357683  0.71454184  0.35178600     0.14770
C2138       C  0.04382738  0.76813982  0.32453332    -0.24190
H2139       H  0.04141265  0.62905245  0.24346686     0.04980
H2140       H  0.03814824  0.61293179  0.28603128     0.08210
H2141       H  0.07947639  0.62211209  0.26759874     0.08210
H2142       H  0.02842468  0.78587275  0.30936355     0.08190
H2143       H  0.06992025  0.77875878  0.32639059     0.08190
H2144       H  0.03281705  0.76665283  0.35046864     0.04970
C2145       C  0.95432679  0.69764329  0.26903617    -0.20840
C2146       C  0.96533358  0.72903716  0.28208749    -0.07400
C2147       C  0.95337542  0.73900423  0.31457060     0.13470
C2148       C  0.93686881  0.71517815  0.33537520    -0.20890
C2149       C  0.93172708  0.68159824  0.32448717    -0.07410
C2150       C  0.93824140  0.67346790  0.28991991     0.13450
C2151       C  0.92958721  0.63913883  0.27497934    -0.24240
H2152       H  0.96197243  0.69040258  0.24357155     0.14740
H2153       H  0.93015774  0.72237841  0.36113228     0.14770
C2154       C  0.95769558  0.77427647  0.32838880    -0.24190
H2155       H  0.93350012  0.63871474  0.24701948     0.04980
H2156       H  0.90247725  0.63305288  0.28002530     0.08210
H2157       H  0.94611811  0.61905828  0.28587452     0.08210
H2158       H  0.96972648  0.79114351  0.30978273     0.08190
H2159       H  0.97308941  0.77366282  0.35195744     0.08190
H2160       H  0.93235297  0.78517142  0.33445231     0.04970
C2161       C  0.20496876  0.05858126  0.83081175    -0.20840
C2162       C  0.17256154  0.06736925  0.81895984    -0.07400
C2163       C  0.16632107  0.06582050  0.78354189     0.13470
C2164       C  0.19090359  0.05073970  0.76218175    -0.20890
C2165       C  0.22002562  0.03512694  0.77573531    -0.07410
C2166       C  0.22869122  0.04256493  0.80980419     0.13450
C2167       C  0.26274542  0.03387770  0.82461807    -0.24240
H2168       H  0.21120696  0.06249990  0.85735596     0.14740
H2169       H  0.18554400  0.04790972  0.73540677     0.14770
C2170       C  0.13326362  0.07758989  0.76830640    -0.24190
H2171       H  0.26386105  0.03915119  0.85232833     0.04980
H2172       H  0.28211811  0.05030805  0.81247434     0.08210
H2173       H  0.26887923  0.00668599  0.82107522     0.08210
H2174       H  0.12929263  0.10500910  0.77401663     0.08190
H2175       H  0.11188525  0.06237214  0.77877605     0.08190
H2176       H  0.13303785  0.07447190  0.74025336     0.04970
C2177       C  0.22783827  0.95269193  0.79914793    -0.20840
C2178       C  0.21321857  0.97144830  0.77259261    -0.07400
C2179       C  0.17820734  0.96650660  0.76549762     0.13470
C2180       C  0.15800813  0.94786689  0.78820803    -0.20890
C2181       C  0.17173361  0.93400156  0.81794101    -0.07410
C2182       C  0.20748238  0.93451136  0.82232308     0.13450
C2183       C  0.22431228  0.91625667  0.85141963    -0.24240
H2184       H  0.25492770  0.95446383  0.80345963     0.14740
H2185       H  0.13083015  0.94642995  0.78384426     0.14770
C2186       C  0.16089251  0.98119624  0.73478511    -0.24190
H2187       H  0.25246747  0.91747262  0.84958325     0.04980
H2188       H  0.21671258  0.88903202  0.85095682     0.08210
H2189       H  0.21696873  0.92787763  0.87603499     0.08210
H2190       H  0.14898111  0.96031653  0.71993305     0.08190
H2191       H  0.17881631  0.99450146  0.71774523     0.08190
H2192       H  0.14073425  0.99928623  0.74284722     0.04970
C2193       C  0.26118870  0.04559397  0.69470402    -0.20840
C2194       C  0.27582138  0.03131468  0.72404729    -0.07400
C2195       C  0.30981782  0.04004673  0.73197869     0.13470
C2196       C  0.32907141  0.05865907  0.70866273    -0.20890
C2197       C  0.31636798  0.06723329  0.67647421    -0.07410
C2198       C  0.28125955  0.06247414  0.67015854     0.13450
C2199       C  0.26526540  0.07271561  0.63696648    -0.24240
H2200       H  0.23467962  0.04073956  0.68936604     0.14740
H2201       H  0.35546122  0.06388017  0.71471977     0.14770
C2202       C  0.32772157  0.02886917  0.76376448    -0.24190
H2203       H  0.23762171  0.06695813  0.63650604     0.04980
H2204       H  0.27734344  0.05855537  0.61571408     0.08210
H2205       H  0.26844180  0.10054163  0.63298261     0.08210
H2206       H  0.31120191  0.01389555  0.78061102     0.08190
H2207       H  0.33658556  0.05159412  0.77805078     0.08190
H2208       H  0.35012093  0.01300417  0.75703708     0.04970
C2209       C  0.30356638  0.95513327  0.73989336    -0.20840
C2210       C  0.27303830  0.96723938  0.72583739    -0.07400
C2211       C  0.26387458  0.95554669  0.69320349     0.13470
C2212       C  0.28829651  0.93936476  0.67293769    -0.20890
C2213       C  0.32166442  0.93431721  0.68454536    -0.07410
C2214       C  0.32868935  0.93993666  0.71934811     0.13450
C2215       C  0.36310789  0.93270083  0.73441227    -0.24240
H2216       H  0.30927452  0.96056784  0.76615650     0.14740
H2217       H  0.28184382  0.93256486  0.64703297     0.14770
C2218       C  0.22856160  0.96003119  0.67947804    -0.24190
H2219       H  0.36402089  0.93911869  0.76188856     0.04980
H2220       H  0.38278469  0.94820694  0.72133432     0.08210
H2221       H  0.36916481  0.90520655  0.73169342     0.08210
H2222       H  0.22183484  0.98723094  0.67769069     0.08190
H2223       H  0.21040511  0.94659396  0.69636384     0.08190
H2224       H  0.22588870  0.94892087  0.65365982     0.04970
C2225       C  0.03245843  0.23468173  0.81304543    -0.20840
C2226       C  0.03012249  0.22408550  0.77895558    -0.07400
C2227       C  0.04875538  0.19481006  0.76903757     0.13470
C2228       C  0.06403623  0.17432751  0.79395345    -0.20890
C2229       C  0.06126414  0.18222948  0.82854138    -0.07410
C2230       C  0.04667263  0.21366047  0.83816472     0.13450
C2231       C  0.04287380  0.22365220  0.87497779    -0.24240
H2232       H  0.01967115  0.25768296  0.82086671     0.14740
H2233       H  0.07643478  0.15078084  0.78656230     0.14770
C2234       C  0.05166409  0.18391681  0.73263719    -0.24190
H2235       H  0.02935189  0.24832589  0.87790272     0.04980
H2236       H  0.06831321  0.22635897  0.88681529     0.08210
H2237       H  0.02800103  0.20393407  0.88875943     0.08210
H2238       H  0.06367848  0.20459209  0.71769498     0.08190
H2239       H  0.02635991  0.17741709  0.72249129     0.08190
H2240       H  0.06788329  0.16093491  0.72971475     0.04970
C2241       C  0.93501602  0.21033886  0.82611441    -0.20840
C2242       C  0.93541604  0.17499705  0.82037049    -0.07400
C2243       C  0.94672692  0.16283022  0.78821045     0.13470
C2244       C  0.96196709  0.18544208  0.76546195    -0.20890
C2245       C  0.96699356  0.21957110  0.77394172    -0.07410
C2246       C  0.95010344  0.23293243  0.80275571     0.13450
C2247       C  0.94716382  0.27073394  0.80848805    -0.24240
H2248       H  0.92429457  0.22021660  0.84950625     0.14740
H2249       H  0.97312450  0.17562864  0.74232695     0.14770
C2250       C  0.94418901  0.12598868  0.77762243    -0.24190
H2251       H  0.93482282  0.27657497  0.83321400     0.04980
H2252       H  0.93109232  0.28183836  0.78820316     0.08210
H2253       H  0.97223963  0.28341233  0.80802411     0.08210
H2254       H  0.91776077  0.11712707  0.78150213     0.08190
H2255       H  0.96224237  0.11006082  0.79229286     0.08990
H2256       H  0.95051388  0.12238393  0.75033001     0.04970
C2257       C  0.04382480  0.29802038  0.73014042    -0.20840
C2258       C  0.02978455  0.26866373  0.71521675    -0.07400
C2259       C  0.03720046  0.26199405  0.68055410     0.13470
C2260       C  0.05432014  0.28633354  0.66106042    -0.20890
C2261       C  0.06344326  0.31792215  0.67468377    -0.07410
C2262       C  0.05965362  0.32327707  0.71014496     0.13450
C2263       C  0.07103860  0.35587010  0.72691896    -0.24240
H2264       H  0.03863502  0.30317193  0.75671078     0.14740
H2265       H  0.05792847  0.28156979  0.63413951     0.14770
C2266       C  0.02592909  0.23033619  0.66241307    -0.24190
H2267       H  0.06823492  0.35461274  0.75498128     0.04980
H2268       H  0.05545040  0.37761485  0.71796330     0.08210
H2269       H  0.09824070  0.36063159  0.72103803     0.08210
H2270       H  0.01494405  0.21162223  0.67991399     0.08190
H2271       H  0.04818588  0.21799252  0.65013226     0.08190
H2272       H  0.00693028  0.23690148  0.64263605     0.04970
C2273       C  0.96367054  0.30578497  0.73115529    -0.20840
C2274       C  0.96673072  0.27191092  0.72049670    -0.07400
C2275       C  0.94649764  0.26064230  0.69313631     0.13470
C2276       C  0.93126982  0.28505931  0.67185031    -0.20890
C2277       C  0.93360077  0.32006487  0.67930022    -0.07410
C2278       C  0.94682638  0.32997307  0.71141180     0.13450
C2279       C  0.94493733  0.36597909  0.72486323    -0.24240
H2280       H  0.97745766  0.31413150  0.75346310     0.14740
H2281       H  0.91832731  0.27678606  0.64901071     0.14770
C2282       C  0.93858340  0.22348623  0.68798061    -0.24190
H2283       H  0.95252805  0.36734128  0.75201213     0.04980
H2284       H  0.91843745  0.37555511  0.72307676     0.08210
H2285       H  0.96251102  0.38288565  0.71063709     0.08210
H2286       H  0.92410533  0.21401269  0.71027214     0.08190
H2287       H  0.96161758  0.20791097  0.68528167     0.08190
H2288       H  0.92266132  0.21936609  0.66506767     0.04970
loop_ 
_geom_bond_atom_site_label_1 
_geom_bond_atom_site_label_2 
_geom_bond_distance 
_geom_bond_site_symmetry_2 
_ccdc_geom_bond_type 
C1            C2   1.360       .  D
C1         C2258   1.499   1_655  S
C1         C2274   1.493       .  S
C2         C2226   1.503   1_655  S
C2         C2245   1.490       .  S
C3            C4   1.362       .  D
C3         C2194   1.499       .  S
C3         C2210   1.500   1_545  S
C4         C2165   1.500       .  S
C4         C2178   1.499   1_545  S
C5            C6   1.358       .  D
C5         C2130   1.491   1_655  S
C5         C2146   1.499       .  S
C6         C2101   1.498   1_655  S
C6         C2114   1.490       .  S
C7            C8   1.362       .  D
C7         C2069   1.494   1_565  S
C7         C2082   1.504       .  S
C8         C2034   1.498   1_565  S
C8         C2050   1.494       .  S
C9           C10   1.364       .  D
C9         C2002   1.500       .  S
C9         C2018   1.497   1_554  S
C10        C1973   1.500       .  S
C10        C1986   1.507   1_554  S
C11          C12   1.358       .  D
C11        C1941   1.494       .  S
C11        C1954   1.504   1_554  S
C12        C1906   1.493       .  S
C12        C1922   1.497   1_554  S
C13          C14   1.357   1_554  D
C13        C1874   1.487       .  S
C13        C1890   1.505   1_554  S
C14        C1842   1.502   1_556  S
C14        C1858   1.490       .  S
C15          C16   1.362   1_565  D
C15        C1813   1.501   1_565  S
C15        C1826   1.499       .  S
C16        C1778   1.500       .  S
C16        C1794   1.501   1_545  S
C17          C18   1.370       .  D
C17        C1746   1.512   1_655  S
C17        C1762   1.512       .  S
C18        C1714   1.504   1_655  S
C18        C1730   1.503       .  S
O19         Cr37   2.001       .  S
O19          C27   1.264       .  A
O20         Cr37   1.996       .  S
O20          C21   1.262       .  A
C21          O22   1.262       .  A
C21        C2181   1.485       .  S
O22         Cr38   1.990       .  S
O23         Cr38   1.986       .  S
O23          C24   1.264       .  A
C24          O25   1.263       .  A
C24        C1717   1.486       .  S
O25         Cr39   1.999       .  S
O26         Cr39   1.992       .  S
O26          C27   1.261       .  A
C27        C1925   1.495       .  S
O28         Cr37   1.993       .  S
O28          C36   1.265       .  A
O29         Cr37   2.006       .  S
O29          C30   1.265       .  A
C30          O31   1.262       .  A
C30         C168   1.479   1_565  S
O31         Cr38   1.990       .  S
O32         Cr38   1.997       .  S
O32          C33   1.262       .  A
C33          O34   1.263       .  A
C33          C58   1.473   1_455  S
O34         Cr39   1.991       .  S
O35         Cr39   1.994       .  S
O35          C36   1.264       .  A
C36          C77   1.470   1_556  S
Cr37         O40   1.778       .  S
Cr38         O40   1.776       .  S
Cr39         O40   1.781       .  S
O41         Cr59   1.986       .  S
O41          C49   1.262       .  A
O42         Cr59   1.993       .  S
O42          C43   1.262       .  A
C43          O44   1.264       .  A
C43        C1797   1.491       .  S
O44         Cr60   1.994       .  S
O45         Cr60   1.982       .  S
O45          C46   1.260       .  A
C46          O47   1.262       .  A
C46        C1861   1.480       .  S
O47         Cr61   1.996       .  S
O48         Cr61   1.999       .  S
O48          C49   1.262       .  A
C49        C1733   1.487       .  S
O50         Cr59   1.995       .  S
O50          C58   1.263       .  A
O51         Cr59   1.987       .  S
O51          C52   1.264       .  A
C52          O53   1.262       .  A
C52         C124   1.470   1_565  S
O53         Cr60   1.994       .  S
O54         Cr60   1.997       .  S
O54          C55   1.266       .  A
C55          O56   1.263       .  A
C55          C99   1.475   1_556  S
O56         Cr61   1.997       .  S
O57         Cr61   1.995       .  S
O57          C58   1.266       .  A
Cr59         O62   1.772       .  S
Cr60         O62   1.776       .  S
Cr61         O62   1.779       .  S
O63         Cr81   2.002       .  S
O63          C71   1.265       .  A
O64         Cr81   1.976       .  S
O64          C65   1.257       .  A
C65          O66   1.266       .  A
C65        C1701   1.478       .  S
O66         Cr82   2.001       .  S
O67         Cr82   1.992       .  S
O67          C68   1.261       .  A
C68          O69   1.260       .  A
C68        C1909   1.479       .  S
O69         Cr83   1.985       .  S
O70         Cr83   1.985       .  S
O70          C71   1.261       .  A
C71        C2098   1.480       .  S
O72         Cr81   1.984       .  S
O72          C80   1.259       .  A
O73         Cr81   1.999       .  S
O73          C74   1.266       .  A
C74          O75   1.262       .  A
C74         C190   1.473   1_565  S
O75         Cr82   1.992       .  S
O76         Cr82   2.003       .  S
O76          C77   1.268       .  A
C77          O78   1.262       .  A
O78         Cr83   1.986       .  S
O79         Cr83   1.990       .  S
O79          C80   1.263       .  A
C80          C96   1.463   1_455  S
Cr81         O84   1.773       .  S
Cr82         O84   1.774       .  S
Cr83         O84   1.772       .  S
O85        Cr103   1.997       .  S
O85          C93   1.262       .  A
O86        Cr103   1.973       .  S
O86          C87   1.260       .  A
C87          O88   1.261       .  A
C87        C2117   1.489       .  S
O88        Cr104   2.000       .  S
O89        Cr104   1.979       .  S
O89          C90   1.262       .  A
C90          O91   1.261       .  A
C90        C1845   1.492       .  S
O91        Cr105   1.999       .  S
O92        Cr105   1.983       .  S
O92          C93   1.263       .  A
C93        C2053   1.487       .  S
O94        Cr103   1.983       .  S
O94         C102   1.259       .  A
O95        Cr103   1.987       .  S
O95          C96   1.262       .  A
C96          O97   1.264       .  A
O97        Cr104   1.989       .  S
O98        Cr104   1.998       .  S
O98          C99   1.265       .  A
C99         O100   1.265       .  A
O100       Cr105   1.996       .  S
O101       Cr105   1.992       .  S
O101        C102   1.264       .  A
C102        C143   1.461   1_565  S
Cr103       O106   1.776       .  S
Cr104       O106   1.775       .  S
Cr105       O106   1.771       .  S
O107       Cr125   1.978       .  S
O107        C115   1.260       .  A
O108       Cr125   1.980       .  S
O108        C109   1.257       .  A
C109        O110   1.264       .  A
C109       C2242   1.487       .  S
O110       Cr126   2.002       .  S
O111       Cr126   1.984       .  S
O111        C112   1.257       .  A
C112        O113   1.263       .  A
C112       C1989   1.491       .  S
O113       Cr127   1.998       .  S
O114       Cr127   2.002       .  S
O114        C115   1.266       .  A
C115       C1781   1.480       .  S
O116       Cr125   1.978       .  S
O116        C124   1.259       .  A
O117       Cr125   1.988       .  S
O117        C118   1.262       .  A
C118        O119   1.265       .  A
C118        C165   1.467   1_655  S
O119       Cr126   1.993       .  S
O120       Cr126   1.984       .  S
O120        C121   1.265       .  A
C121        O122   1.265       .  A
C121        C146   1.464   1_556  S
O122       Cr127   1.995       .  S
O123       Cr127   2.000       .  S
O123        C124   1.261       .  A
Cr125       O128   1.775       .  S
Cr126       O128   1.776       .  S
Cr127       O128   1.779       .  S
O129       Cr147   1.996       .  S
O129        C137   1.262       .  A
O130       Cr147   1.989       .  S
O130        C131   1.264       .  A
C131        O132   1.263       .  A
C131       C1682   1.493       .  S
O132       Cr148   1.996       .  S
O133       Cr148   1.985       .  S
O133        C134   1.259       .  A
C134        O135   1.263       .  A
C134       C2037   1.494       .  S
O135       Cr149   2.001       .  S
O136       Cr149   1.976       .  S
O136        C137   1.259       .  A
C137       C1970   1.481       .  S
O138       Cr147   1.997       .  S
O138        C146   1.263       .  A
O139       Cr147   1.991       .  S
O139        C140   1.263       .  A
C140        O141   1.261       .  A
C140        C184   1.472   1_655  S
O141       Cr148   1.997       .  S
O142       Cr148   1.984       .  S
O142        C143   1.263       .  A
C143        O144   1.261       .  A
O144       Cr149   1.993       .  S
O145       Cr149   1.980       .  S
O145        C146   1.263       .  A
Cr147       O150   1.784       .  S
Cr148       O150   1.779       .  S
Cr149       O150   1.784       .  S
O151       Cr169   1.988       .  S
O151        C159   1.263       .  A
O152       Cr169   1.982       .  S
O152        C153   1.259       .  A
C153        O154   1.264       .  A
C153       C1666   1.488       .  S
O154       Cr170   1.998       .  S
O155       Cr170   1.978       .  S
O155        C156   1.259       .  A
C156        O157   1.266       .  A
C156       C2229   1.480       .  S
O157       Cr171   2.005       .  S
O158       Cr171   1.990       .  S
O158        C159   1.259       .  A
C159       C2162   1.487       .  S
O160       Cr169   1.993       .  S
O160        C168   1.263       .  A
O161       Cr169   1.994       .  S
O161        C162   1.264       .  A
C162        O163   1.260       .  A
C162        C187   1.463   1_556  S
O163       Cr170   1.981       .  S
O164       Cr170   1.991       .  S
O164        C165   1.265       .  A
C165        O166   1.262       .  A
O166       Cr171   1.990       .  S
O167       Cr171   2.008       .  S
O167        C168   1.269       .  A
Cr169       O172   1.769       .  S
Cr170       O172   1.775       .  S
Cr171       O172   1.772       .  S
O173       Cr191   1.993       .  S
O173        C181   1.262       .  A
O174       Cr191   1.975       .  S
O174        C175   1.261       .  A
C175        O176   1.261       .  A
C175       C1618   1.487       .  S
O176       Cr192   2.001       .  S
O177       Cr192   2.007       .  S
O177        C178   1.265       .  A
C178        O179   1.260       .  A
C178       C1650   1.487       .  S
O179       Cr193   1.985       .  S
O180       Cr193   1.988       .  S
O180        C181   1.263       .  A
C181       C1634   1.485       .  S
O182       Cr191   1.993       .  S
O182        C190   1.262       .  A
O183       Cr191   1.988       .  S
O183        C184   1.265       .  A
C184        O185   1.266       .  A
O185       Cr192   2.008       .  S
O186       Cr192   1.986       .  S
O186        C187   1.260       .  A
C187        O188   1.263       .  A
O188       Cr193   1.988       .  S
O189       Cr193   1.994       .  S
O189        C190   1.262       .  A
Cr191       O194   1.771       .  S
Cr192       O194   1.780       .  S
Cr193       O194   1.776       .  S
C195        C196   1.359       .  D
C195       C1573   1.494       .  S
C195       C1602   1.495       .  S
C196       C1554   1.496       .  S
C196       C1589   1.498       .  S
C197        C198   1.357       .  D
C197       C1490   1.498       .  S
C197       C1522   1.497       .  S
C198       C1509   1.493       .  S
C198       C1538   1.493       .  S
C199        C200   1.358       .  D
C199       C1442   1.498       .  S
C199       C1474   1.496       .  S
C200       C1429   1.493       .  S
C200       C1461   1.501       .  S
C201        C202   1.365       .  D
C201       C1653   1.497   1_556  S
C201       C1669   1.493       .  S
C202       C1394   1.503   1_556  S
C202       C1413   1.503       .  S
C203        C204   1.360       .  D
C203       C1637   1.501   1_565  S
C203       C1698   1.498       .  S
C204       C1365   1.496   1_565  S
C204       C1378   1.499       .  S
C205        C206   1.355       .  D
C205       C1314   1.497       .  S
C205       C1346   1.494       .  S
C206       C1298   1.494       .  S
C206       C1330   1.487       .  S
C207        C208   1.361       .  D
C207       C1266   1.502       .  S
C207       C1285   1.497       .  S
C208       C1234   1.495       .  S
C208       C1250   1.497       .  S
C209        C210   1.360       .  D
C209       C1186   1.501       .  S
C209       C1218   1.488       .  S
C210       C1170   1.494       .  S
C210       C1202   1.501       .  S
O211       Cr229   2.001       .  S
O211        C219   1.260       .  A
O212       Cr229   1.981       .  S
O212        C213   1.261       .  A
C213        O214   1.260       .  A
C213       C1237   1.476       .  S
O214       Cr230   1.988       .  S
O215       Cr230   1.982       .  S
O215        C216   1.263       .  A
C216        O217   1.261       .  A
C216       C1173   1.489       .  S
O217       Cr231   1.994       .  S
O218       Cr231   1.977       .  S
O218        C219   1.259       .  A
C219       C1381   1.491       .  S
O220       Cr229   1.994       .  S
O220        C228   1.264       .  A
O221       Cr229   1.984       .  S
O221        C222   1.262       .  A
C222        O223   1.261       .  A
C222        C376   1.462       .  S
O223       Cr230   1.987       .  S
O224       Cr230   1.991       .  S
O224        C225   1.262       .  A
C225        O226   1.263       .  A
C225        C272   1.472       .  S
O226       Cr231   1.998       .  S
O227       Cr231   1.987       .  S
O227        C228   1.265       .  A
C228        C244   1.464   1_565  S
Cr229       O232   1.780       .  S
Cr230       O232   1.779       .  S
Cr231       O232   1.776       .  S
O233       Cr251   1.986       .  S
O233        C241   1.260       .  A
O234       Cr251   1.993       .  S
O234        C235   1.264       .  A
C235        O236   1.261       .  A
C235       C1362   1.485       .  S
O236       Cr252   1.985       .  S
O237       Cr252   1.997       .  S
O237        C238   1.261       .  A
C238        O239   1.261       .  A
C238       C1570   1.490       .  S
O239       Cr253   1.990       .  S
O240       Cr253   1.989       .  S
O240        C241   1.262       .  A
C241       C1493   1.480       .  S
O242       Cr251   1.999       .  S
O242        C250   1.264       .  A
O243       Cr251   1.981       .  S
O243        C244   1.261       .  A
C244        O245   1.262       .  A
O245       Cr252   1.999       .  S
O246       Cr252   1.980       .  S
O246        C247   1.261       .  A
C247        O248   1.265       .  A
C247        C288   1.464       .  S
O248       Cr253   1.999       .  S
O249       Cr253   1.983       .  S
O249        C250   1.263       .  A
C250        C357   1.468       .  S
Cr251       O254   1.778       .  S
Cr252       O254   1.778       .  S
Cr253       O254   1.776       .  S
O255       Cr273   1.991       .  S
O255        C263   1.260       .  A
O256       Cr273   2.003       .  S
O256        C257   1.264       .  A
C257        O258   1.258       .  A
C257       C1157   1.485       .  S
O258       Cr274   1.978       .  S
O259       Cr274   1.992       .  S
O259        C260   1.263       .  A
C260        O261   1.264       .  A
C260       C2085   1.482       .  S
O261       Cr275   1.991       .  S
O262       Cr275   1.987       .  S
O262        C263   1.260       .  A
C263       C1205   1.481       .  S
O264       Cr273   1.989       .  S
O264        C272   1.262       .  A
O265       Cr273   1.994       .  S
O265        C266   1.262       .  A
C266        O267   1.262       .  A
C266        C316   1.458       .  S
O267       Cr274   1.981       .  S
O268       Cr274   1.987       .  S
O268        C269   1.259       .  A
C269        O270   1.263       .  A
C269        C291   1.468   1_565  S
O270       Cr275   1.991       .  S
O271       Cr275   2.002       .  S
O271        C272   1.267       .  A
Cr273       O276   1.784       .  S
Cr274       O276   1.778       .  S
Cr275       O276   1.778       .  S
O277       Cr295   1.988       .  S
O277        C285   1.262       .  A
O278       Cr295   1.983       .  S
O278        C279   1.262       .  A
C279        O280   1.265       .  A
C279       C1605   1.488       .  S
O280       Cr296   2.004       .  S
O281       Cr296   1.977       .  S
O281        C282   1.258       .  A
C282        O283   1.263       .  A
C282       C2066   1.477       .  S
O283       Cr297   1.996       .  S
O284       Cr297   1.997       .  S
O284        C285   1.261       .  A
C285       C1138   1.487       .  S
O286       Cr295   1.989       .  S
O286        C294   1.264       .  A
O287       Cr295   1.998       .  S
O287        C288   1.263       .  A
C288        O289   1.257       .  A
O289       Cr296   1.978       .  S
O290       Cr296   1.999       .  S
O290        C291   1.263       .  A
C291        O292   1.264       .  A
O292       Cr297   1.985       .  S
O293       Cr297   2.006       .  S
O293        C294   1.267       .  A
C294        C335   1.474       .  S
Cr295       O298   1.773       .  S
Cr296       O298   1.777       .  S
Cr297       O298   1.775       .  S
O299       Cr317   1.988       .  S
O299        C307   1.259       .  A
O300       Cr317   1.992       .  S
O300        C301   1.263       .  A
C301        O302   1.261       .  A
C301       C1349   1.485       .  S
O302       Cr318   1.989       .  S
O303       Cr318   1.986       .  S
O303        C304   1.261       .  A
C304        O305   1.264       .  A
C304       C1829   1.483       .  S
O305       Cr319   1.993       .  S
O306       Cr319   2.001       .  S
O306        C307   1.263       .  A
C307       C1125   1.493       .  S
O308       Cr317   1.983       .  S
O308        C316   1.264       .  A
O309       Cr317   1.998       .  S
O309        C310   1.264       .  A
C310        O311   1.263       .  A
C310        C382   1.474       .  S
O311       Cr318   1.994       .  S
O312       Cr318   1.991       .  S
O312        C313   1.263       .  A
C313        O314   1.261       .  A
C313        C338   1.469   1_565  S
O314       Cr319   1.991       .  S
O315       Cr319   1.991       .  S
O315        C316   1.263       .  A
Cr317       O320   1.775       .  S
Cr318       O320   1.776       .  S
Cr319       O320   1.778       .  S
O321       Cr339   1.986       .  S
O321        C329   1.260       .  A
O322       Cr339   1.995       .  S
O322        C323   1.262       .  A
C323        O324   1.262       .  A
C323       C1106   1.484       .  S
O324       Cr340   1.989       .  S
O325       Cr340   1.991       .  S
O325        C326   1.264       .  A
C326        O327   1.259       .  A
C326       C1090   1.476       .  S
O327       Cr341   1.981       .  S
O328       Cr341   1.999       .  S
O328        C329   1.263       .  A
C329       C1810   1.485       .  S
O330       Cr339   1.998       .  S
O330        C338   1.266       .  A
O331       Cr339   1.985       .  S
O331        C332   1.263       .  A
C332        O333   1.262       .  A
C332        C360   1.464       .  S
O333       Cr340   1.993       .  S
O334       Cr340   1.987       .  S
O334        C335   1.260       .  A
C335        O336   1.265       .  A
O336       Cr341   2.005       .  S
O337       Cr341   1.987       .  S
O337        C338   1.262       .  A
Cr339       O342   1.776       .  S
Cr340       O342   1.777       .  S
Cr341       O342   1.781       .  S
O343       Cr361   1.991       .  S
O343        C351   1.262       .  A
O344       Cr361   1.980       .  S
O344        C345   1.260       .  A
C345        O346   1.260       .  A
C345       C2197   1.491       .  S
O346       Cr362   1.998       .  S
O347       Cr362   1.988       .  S
O347        C348   1.262       .  A
C348        O349   1.260       .  A
C348       C1525   1.479       .  S
O349       Cr363   1.984       .  S
O350       Cr363   1.988       .  S
O350        C351   1.261       .  A
C351       C1074   1.479       .  S
O352       Cr361   1.997       .  S
O352        C360   1.262       .  A
O353       Cr361   1.978       .  S
O353        C354   1.262       .  A
C354        O355   1.265       .  A
C354        C379   1.461   1_545  S
O355       Cr362   1.999       .  S
O356       Cr362   1.985       .  S
O356        C357   1.262       .  A
C357        O358   1.262       .  A
O358       Cr363   1.995       .  S
O359       Cr363   1.981       .  S
O359        C360   1.261       .  A
Cr361       O364   1.781       .  S
Cr362       O364   1.782       .  S
Cr363       O364   1.780       .  S
O365       Cr383   1.976       .  S
O365        C373   1.258       .  A
O366       Cr383   2.000       .  S
O366        C367   1.263       .  A
C367        O368   1.261       .  A
C367       C1253   1.484       .  S
O368       Cr384   1.985       .  S
O369       Cr384   1.988       .  S
O369        C370   1.263       .  A
C370        O371   1.261       .  A
C370       C2213   1.487       .  S
O371       Cr385   1.993       .  S
O372       Cr385   1.999       .  S
O372        C373   1.265       .  A
C373       C1317   1.480       .  S
O374       Cr383   2.005       .  S
O374        C382   1.267       .  A
O375       Cr383   1.978       .  S
O375        C376   1.261       .  A
C376        O377   1.263       .  A
O377       Cr384   1.998       .  S
O378       Cr384   1.976       .  S
O378        C379   1.261       .  A
C379        O380   1.264       .  A
O380       Cr385   2.000       .  S
O381       Cr385   1.989       .  S
O381        C382   1.261       .  A
Cr383       O386   1.775       .  S
Cr384       O386   1.776       .  S
Cr385       O386   1.779       .  S
C387        C388   1.360       .  D
C387       C1122   1.501       .  S
C387       C1154   1.494       .  S
C388       C1042   1.498       .  S
C388       C1058   1.493       .  S
C389        C390   1.358       .  D
C389       C1013   1.496       .  S
C389       C1026   1.497       .  S
C390        C978   1.496       .  S
C390        C994   1.489       .  S
C391        C392   1.361       .  D
C391       C1077   1.495       .  S
C391       C1109   1.499       .  S
C392        C946   1.505       .  S
C392        C962   1.503       .  S
O393       Cr411   1.991       .  S
O393        C401   1.263       .  A
O394       Cr411   1.996       .  S
O394        C395   1.260       .  A
C395        O396   1.261       .  A
C395        C930   1.491       .  S
O396       Cr412   1.990       .  S
O397       Cr412   1.995       .  S
O397        C398   1.261       .  A
C398        O399   1.262       .  A
C398       C1221   1.488       .  S
O399       Cr413   1.982       .  S
O400       Cr413   1.981       .  S
O400        C401   1.260       .  A
C401       C1877   1.474       .  S
O402       Cr411   1.993       .  S
O402        C410   1.264       .  A
O403       Cr411   2.004       .  S
O403        C404   1.268       .  A
C404        O405   1.264       .  A
C404        C520   1.474       .  S
O405       Cr412   1.990       .  S
O406       Cr412   1.995       .  S
O406        C407   1.264       .  A
C407        O408   1.261       .  A
C407        C451   1.465       .  S
O408       Cr413   1.985       .  S
O409       Cr413   1.987       .  S
O409        C410   1.259       .  A
C410        C429   1.468   1_554  S
Cr411       O414   1.774       .  S
Cr412       O414   1.775       .  S
Cr413       O414   1.778       .  S
O415       Cr433   1.981       .  S
O415        C423   1.261       .  A
O416       Cr433   1.982       .  S
O416        C417   1.261       .  A
C417        O418   1.263       .  A
C417        C914   1.475       .  S
O418       Cr434   1.988       .  S
O419       Cr434   1.989       .  S
O419        C420   1.260       .  A
C420        O421   1.260       .  A
C420       C1893   1.479       .  S
O421       Cr435   1.992       .  S
O422       Cr435   1.998       .  S
O422        C423   1.261       .  A
C423       C1333   1.489       .  S
O424       Cr433   1.987       .  S
O424        C432   1.263       .  A
O425       Cr433   1.988       .  S
O425        C426   1.259       .  A
C426        O427   1.260       .  A
C426        C492   1.464       .  S
O427       Cr434   1.983       .  S
O428       Cr434   1.995       .  S
O428        C429   1.264       .  A
C429        O430   1.267       .  A
O430       Cr435   1.989       .  S
O431       Cr435   2.016       .  S
O431        C432   1.268       .  A
C432        C470   1.479       .  S
Cr433       O436   1.779       .  S
Cr434       O436   1.782       .  S
Cr435       O436   1.781       .  S
O437       Cr455   1.988       .  S
O437        C445   1.259       .  A
O438       Cr455   1.995       .  S
O438        C439   1.263       .  A
C439        O440   1.257       .  A
C439       C1938   1.469       .  S
O440       Cr456   1.975       .  S
O441       Cr456   2.004       .  S
O441        C442   1.265       .  A
C442        O443   1.261       .  A
C442       C1189   1.478       .  S
O443       Cr457   1.982       .  S
O444       Cr457   1.993       .  S
O444        C445   1.262       .  A
C445       C1458   1.487       .  S
O446       Cr455   2.014       .  S
O446        C454   1.269       .  A
O447       Cr455   1.986       .  S
O447        C448   1.264       .  A
C448        O449   1.264       .  A
C448        C473   1.471   1_554  S
O449       Cr456   2.002       .  S
O450       Cr456   1.982       .  S
O450        C451   1.258       .  A
C451        O452   1.264       .  A
O452       Cr457   1.996       .  S
O453       Cr457   1.987       .  S
O453        C454   1.263       .  A
C454        C561   1.477       .  S
Cr455       O458   1.775       .  S
Cr456       O458   1.780       .  S
Cr457       O458   1.775       .  S
O459       Cr477   1.987       .  S
O459        C467   1.261       .  A
O460       Cr477   1.994       .  S
O460        C461   1.260       .  A
C461        O462   1.259       .  A
C461       C1301   1.477       .  S
O462       Cr478   1.986       .  S
O463       Cr478   2.006       .  S
O463        C464   1.265       .  A
C464        O465   1.259       .  A
C464       C1957   1.475       .  S
O465       Cr479   1.978       .  S
O466       Cr479   1.998       .  S
O466        C467   1.264       .  A
C467        C997   1.483       .  S
O468       Cr477   2.001       .  S
O468        C476   1.263       .  A
O469       Cr477   1.986       .  S
O469        C470   1.263       .  A
C470        O471   1.271       .  A
O471       Cr478   2.021       .  S
O472       Cr478   1.989       .  S
O472        C473   1.264       .  A
C473        O474   1.262       .  A
O474       Cr479   1.996       .  S
O475       Cr479   1.980       .  S
O475        C476   1.258       .  A
C476        C539   1.466       .  S
Cr477       O480   1.780       .  S
Cr478       O480   1.776       .  S
Cr479       O480   1.776       .  S
O481       Cr499   2.005       .  S
O481        C489   1.265       .  A
O482       Cr499   1.982       .  S
O482        C483   1.259       .  A
C483        O484   1.262       .  A
C483        C898   1.480       .  S
O484       Cr500   1.994       .  S
O485       Cr500   1.992       .  S
O485        C486   1.262       .  A
C486        O487   1.260       .  A
C486        C965   1.486       .  S
O487       Cr501   1.992       .  S
O488       Cr501   1.974       .  S
O488        C489   1.259       .  A
C489       C2021   1.476       .  S
O490       Cr499   1.983       .  S
O490        C498   1.258       .  A
O491       Cr499   1.998       .  S
O491        C492   1.264       .  A
C492        O493   1.262       .  A
O493       Cr500   1.979       .  S
O494       Cr500   2.007       .  S
O494        C495   1.266       .  A
C495        O496   1.263       .  A
C495        C536   1.467       .  S
O496       Cr501   1.981       .  S
O497       Cr501   2.002       .  S
O497        C498   1.264       .  A
C498        C514   1.470   1_556  S
Cr499       O502   1.780       .  S
Cr500       O502   1.776       .  S
Cr501       O502   1.777       .  S
O503       Cr521   1.975       .  S
O503        C511   1.259       .  A
O504       Cr521   2.002       .  S
O504        C505   1.265       .  A
C505        O506   1.260       .  A
C505       C2005   1.491       .  S
O506       Cr522   1.986       .  S
O507       Cr522   2.006       .  S
O507        C508   1.264       .  A
C508        O509   1.259       .  A
C508       C1586   1.481       .  S
O509       Cr523   1.979       .  S
O510       Cr523   2.000       .  S
O510        C511   1.266       .  A
C511        C885   1.475       .  S
O512       Cr521   2.004       .  S
O512        C520   1.265       .  A
O513       Cr521   1.982       .  S
O513        C514   1.262       .  A
C514        O515   1.267       .  A
O515       Cr522   2.007       .  S
O516       Cr522   1.987       .  S
O516        C517   1.262       .  A
C517        O518   1.266       .  A
C517        C564   1.471       .  S
O518       Cr523   2.002       .  S
O519       Cr523   1.988       .  S
O519        C520   1.261       .  A
Cr521       O524   1.774       .  S
Cr522       O524   1.773       .  S
Cr523       O524   1.775       .  S
O525       Cr543   1.992       .  S
O525        C533   1.263       .  A
O526       Cr543   1.988       .  S
O526        C527   1.259       .  A
C527        O528   1.260       .  A
C527        C949   1.479       .  S
O528       Cr544   1.986       .  S
O529       Cr544   1.985       .  S
O529        C530   1.260       .  A
C530        O531   1.265       .  A
C530        C981   1.488       .  S
O531       Cr545   2.000       .  S
O532       Cr545   1.982       .  S
O532        C533   1.261       .  A
C533       C1410   1.474       .  S
O534       Cr543   1.979       .  S
O534        C542   1.260       .  A
O535       Cr543   2.001       .  S
O535        C536   1.265       .  A
C536        O537   1.264       .  A
O537       Cr544   1.985       .  S
O538       Cr544   1.997       .  S
O538        C539   1.263       .  A
C539        O540   1.259       .  A
O540       Cr545   1.984       .  S
O541       Cr545   1.992       .  S
O541        C542   1.261       .  A
C542        C558   1.461   1_556  S
Cr543       O546   1.779       .  S
Cr544       O546   1.778       .  S
Cr545       O546   1.782       .  S
O547       Cr565   1.999       .  S
O547        C555   1.266       .  A
O548       Cr565   1.983       .  S
O548        C549   1.260       .  A
C549        O550   1.264       .  A
C549       C1397   1.481       .  S
O550       Cr566   2.002       .  S
O551       Cr566   1.974       .  S
O551        C552   1.257       .  A
C552        O553   1.263       .  A
C552       C1426   1.474       .  S
O553       Cr567   1.999       .  S
O554       Cr567   1.983       .  S
O554        C555   1.259       .  A
C555       C1557   1.490       .  S
O556       Cr565   1.983       .  S
O556        C564   1.260       .  A
O557       Cr565   2.000       .  S
O557        C558   1.264       .  A
C558        O559   1.261       .  A
O559       Cr566   1.975       .  S
O560       Cr566   2.012       .  S
O560        C561   1.268       .  A
C561        O562   1.263       .  A
O562       Cr567   1.990       .  S
O563       Cr567   2.006       .  S
O563        C564   1.266       .  A
Cr565       O568   1.775       .  S
Cr566       O568   1.775       .  S
Cr567       O568   1.774       .  S
C569        C570   1.354       .  D
C569        C901   1.496       .  S
C569        C917   1.491       .  S
C570        C850   1.489       .  S
C570        C866   1.496       .  S
C571        C572   1.358       .  D
C571       C1621   1.496   1_655  S
C571       C1685   1.496       .  S
C572        C818   1.498   1_655  S
C572        C837   1.498       .  S
C573        C574   1.360       .  D
C573       C1093   1.493       .  S
C573       C1141   1.499       .  S
C574        C786   1.493       .  S
C574        C802   1.501       .  S
C575        C576   1.357       .  D
C575        C882   1.490       .  S
C575        C933   1.496       .  S
C576        C754   1.497       .  S
C576        C770   1.495       .  S
O577       Cr595   1.983       .  S
O577        C585   1.259       .  A
O578       Cr595   1.984       .  S
O578        C579   1.262       .  A
C579        O580   1.260       .  A
C579       C2133   1.478       .  S
O580       Cr596   1.988       .  S
O581       Cr596   1.994       .  S
O581        C582   1.265       .  A
C582        O583   1.259       .  A
C582       C1477   1.483       .  S
O583       Cr597   1.983       .  S
O584       Cr597   2.000       .  S
O584        C585   1.263       .  A
C585       C1269   1.488       .  S
O586       Cr595   1.996       .  S
O586        C594   1.264       .  A
O587       Cr595   1.984       .  S
O587        C588   1.263       .  A
C588        O589   1.264       .  A
C588        C613   1.466   1_455  S
O589       Cr596   1.999       .  S
O590       Cr596   1.981       .  S
O590        C591   1.260       .  A
C591        O592   1.265       .  A
C591        C704   1.465       .  S
O592       Cr597   1.998       .  S
O593       Cr597   1.985       .  S
O593        C594   1.262       .  A
C594        C660   1.466       .  S
Cr595       O598   1.770       .  S
Cr596       O598   1.776       .  S
Cr597       O598   1.775       .  S
O599       Cr617   1.987       .  S
O599        C607   1.261       .  A
O600       Cr617   1.998       .  S
O600        C601   1.263       .  A
C601        O602   1.260       .  A
C601        C773   1.480       .  S
O602       Cr618   1.981       .  S
O603       Cr618   1.987       .  S
O603        C604   1.258       .  A
C604        O605   1.262       .  A
C604       C2149   1.486       .  S
O605       Cr619   1.994       .  S
O606       Cr619   1.988       .  S
O606        C607   1.262       .  A
C607       C1045   1.477       .  S
O608       Cr617   1.989       .  S
O608        C616   1.261       .  A
O609       Cr617   1.988       .  S
O609        C610   1.259       .  A
C610        O611   1.264       .  A
C610        C676   1.469       .  S
O611       Cr618   1.996       .  S
O612       Cr618   1.981       .  S
O612        C613   1.263       .  A
C613        O614   1.266       .  A
O614       Cr619   2.004       .  S
O615       Cr619   1.984       .  S
O615        C616   1.263       .  A
C616        C632   1.463       .  S
Cr617       O620   1.781       .  S
Cr618       O620   1.777       .  S
Cr619       O620   1.775       .  S
O621       Cr639   1.997       .  S
O621        C629   1.261       .  A
O622       Cr639   1.990       .  S
O622        C623   1.261       .  A
C623        O624   1.262       .  A
C623       C1061   1.480       .  S
O624       Cr640   1.987       .  S
O625       Cr640   1.988       .  S
O625        C626   1.263       .  A
C626        O627   1.263       .  A
C626       C1765   1.487       .  S
O627       Cr641   1.999       .  S
O628       Cr641   1.985       .  S
O628        C629   1.259       .  A
C629        C869   1.486       .  S
O630       Cr639   2.002       .  S
O630        C638   1.264       .  A
O631       Cr639   1.983       .  S
O631        C632   1.262       .  A
C632        O633   1.260       .  A
O633       Cr640   1.990       .  S
O634       Cr640   1.990       .  S
O634        C635   1.261       .  A
C635        O636   1.263       .  A
C635        C657   1.471   1_655  S
O636       Cr641   1.997       .  S
O637       Cr641   1.983       .  S
O637        C638   1.264       .  A
C638        C720   1.465       .  S
Cr639       O642   1.784       .  S
Cr640       O642   1.777       .  S
Cr641       O642   1.777       .  S
O643       Cr661   2.002       .  S
O643        C651   1.264       .  A
O644       Cr661   1.980       .  S
O644        C645   1.260       .  A
C645        O646   1.264       .  A
C645       C1029   1.479       .  S
O646       Cr662   1.998       .  S
O647       Cr662   1.987       .  S
O647        C648   1.260       .  A
C648        O649   1.264       .  A
C648       C1749   1.481       .  S
O649       Cr663   1.995       .  S
O650       Cr663   1.981       .  S
O650        C651   1.261       .  A
C651       C1282   1.482       .  S
O652       Cr661   1.982       .  S
O652        C660   1.258       .  A
O653       Cr661   1.996       .  S
O653        C654   1.263       .  A
C654        O655   1.261       .  A
C654        C745   1.460       .  S
O655       Cr662   1.977       .  S
O656       Cr662   2.005       .  S
O656        C657   1.267       .  A
C657        O658   1.262       .  A
O658       Cr663   1.986       .  S
O659       Cr663   1.999       .  S
O659        C660   1.264       .  A
Cr661       O664   1.778       .  S
Cr662       O664   1.775       .  S
Cr663       O664   1.774       .  S
O665       Cr683   1.984       .  S
O665        C673   1.259       .  A
O666       Cr683   2.002       .  S
O666        C667   1.263       .  A
C667        O668   1.258       .  A
C667        C757   1.492       .  S
O668       Cr684   1.984       .  S
O669       Cr684   1.975       .  S
O669        C670   1.260       .  A
C670        O671   1.264       .  A
C670        C789   1.475       .  S
O671       Cr685   1.998       .  S
O672       Cr685   1.986       .  S
O672        C673   1.260       .  A
C673        C834   1.479       .  S
O674       Cr683   1.985       .  S
O674        C682   1.265       .  A
O675       Cr683   1.999       .  S
O675        C676   1.266       .  A
C676        O677   1.263       .  A
O677       Cr684   1.987       .  S
O678       Cr684   1.991       .  S
O678        C679   1.263       .  A
C679        O680   1.259       .  A
C679        C726   1.470       .  S
O680       Cr685   1.992       .  S
O681       Cr685   1.994       .  S
O681        C682   1.264       .  A
C682        C698   1.464   1_655  S
Cr683       O686   1.775       .  S
Cr684       O686   1.771       .  S
Cr685       O686   1.780       .  S
O687       Cr705   1.999       .  S
O687        C695   1.264       .  A
O688       Cr705   1.983       .  S
O688        C689   1.259       .  A
C689        O690   1.263       .  A
C689        C821   1.476       .  S
O690       Cr706   1.991       .  S
O691       Cr706   1.997       .  S
O691        C692   1.260       .  A
C692        O693   1.261       .  A
C692       C1506   1.489       .  S
O693       Cr707   1.981       .  S
O694       Cr707   1.983       .  S
O694        C695   1.260       .  A
C695       C1445   1.480       .  S
O696       Cr705   1.983       .  S
O696        C704   1.259       .  A
O697       Cr705   1.994       .  S
O697        C698   1.262       .  A
C698        O699   1.263       .  A
O699       Cr706   1.983       .  S
O700       Cr706   2.015       .  S
O700        C701   1.268       .  A
C701        O702   1.264       .  A
C701        C748   1.474       .  S
O702       Cr707   1.985       .  S
O703       Cr707   1.993       .  S
O703        C704   1.262       .  A
Cr705       O708   1.782       .  S
Cr706       O708   1.778       .  S
Cr707       O708   1.776       .  S
O709       Cr727   2.003       .  S
O709        C717   1.264       .  A
O710       Cr727   1.978       .  S
O710        C711   1.259       .  A
C711        O712   1.263       .  A
C711        C853   1.487       .  S
O712       Cr728   1.999       .  S
O713       Cr728   1.981       .  S
O713        C714   1.259       .  A
C714        O715   1.263       .  A
C714       C2277   1.487       .  S
O715       Cr729   1.995       .  S
O716       Cr729   1.992       .  S
O716        C717   1.262       .  A
C717        C805   1.500       .  S
O718       Cr727   1.988       .  S
O718        C726   1.263       .  A
O719       Cr727   1.994       .  S
O719        C720   1.265       .  A
C720        O721   1.260       .  A
O721       Cr728   1.986       .  S
O722       Cr728   1.986       .  S
O722        C723   1.261       .  A
C723        O724   1.264       .  A
C723        C742   1.465   1_655  S
O724       Cr729   1.992       .  S
O725       Cr729   1.996       .  S
O725        C726   1.264       .  A
Cr727       O730   1.770       .  S
Cr728       O730   1.779       .  S
Cr729       O730   1.778       .  S
O731       Cr749   1.979       .  S
O731        C739   1.260       .  A
O732       Cr749   1.987       .  S
O732        C733   1.263       .  A
C733        O734   1.262       .  A
C733       C2261   1.485       .  S
O734       Cr750   1.999       .  S
O735       Cr750   1.981       .  S
O735        C736   1.260       .  A
C736        O737   1.263       .  A
C736       C1010   1.479       .  S
O737       Cr751   1.993       .  S
O738       Cr751   1.998       .  S
O738        C739   1.259       .  A
C739       C1541   1.490       .  S
O740       Cr749   1.989       .  S
O740        C748   1.265       .  A
O741       Cr749   1.989       .  S
O741        C742   1.262       .  A
C742        O743   1.260       .  A
O743       Cr750   1.987       .  S
O744       Cr750   1.989       .  S
O744        C745   1.261       .  A
C745        O746   1.262       .  A
O746       Cr751   1.981       .  S
O747       Cr751   2.011       .  S
O747        C748   1.268       .  A
Cr749       O752   1.773       .  S
Cr750       O752   1.781       .  S
Cr751       O752   1.779       .  S
C753        C754   1.401       .  A
C753        C758   1.397       .  A
C753        H760   1.083       .  S
C754        C755   1.413       .  A
C755        C756   1.410       .  A
C755        C762   1.503       .  S
C756        C757   1.407       .  A
C756        H761   1.084       .  S
C757        C758   1.423       .  A
C758        C759   1.511       .  S
C759        H763   1.111       .  S
C759        H764   1.109       .  S
C759        H765   1.110       .  S
C762        H766   1.100       .  S
C762        H767   1.109       .  S
C762        H768   1.111       .  S
C769        C770   1.404       .  A
C769        C774   1.404       .  A
C769        H776   1.080       .  S
C770        C771   1.413       .  A
C771        C772   1.400       .  A
C771        C778   1.500       .  S
C772        C773   1.402       .  A
C772        H777   1.084       .  S
C773        C774   1.416       .  A
C774        C775   1.509       .  S
C775        H779   1.111       .  S
C775        H780   1.110       .  S
C775        H781   1.109       .  S
C778        H782   1.104       .  S
C778        H783   1.110       .  S
C778        H784   1.110       .  S
C785        C786   1.404       .  A
C785        C790   1.405       .  A
C785        H792   1.082       .  S
C786        C787   1.418       .  A
C787        C788   1.398       .  A
C787        C794   1.505       .  S
C788        C789   1.398       .  A
C788        H793   1.084       .  S
C789        C790   1.415       .  A
C790        C791   1.507       .  S
C791        H795   1.111       .  S
C791        H796   1.109       .  S
C791        H797   1.110       .  S
C794        H798   1.100       .  S
C794        H799   1.108       .  S
C794        H800   1.111       .  S
C801        C802   1.401       .  A
C801        C806   1.405       .  A
C801        H808   1.073       .  S
C802        C803   1.414       .  A
C803        C804   1.402       .  A
C803        C810   1.505       .  S
C804        C805   1.409       .  A
C804        H809   1.084       .  S
C805        C806   1.417       .  A
C806        C807   1.499       .  S
C807        H811   1.111       .  S
C807        H812   1.109       .  S
C807        H813   1.109       .  S
C810        H814   1.110       .  S
C810        H815   1.106       .  S
C810        H816   1.110       .  S
C817        C818   1.407       .  A
C817        C822   1.404       .  A
C817        H824   1.083       .  S
C818        C819   1.414       .  A
C819        C820   1.403       .  A
C819        C826   1.501       .  S
C820        C821   1.401       .  A
C820        H825   1.085       .  S
C821        C822   1.412       .  A
C822        C823   1.507       .  S
C823        H827   1.111       .  S
C823        H828   1.110       .  S
C823        H829   1.111       .  S
C826        H830   1.108       .  S
C826        H831   1.099       .  S
C826        H832   1.111       .  S
C833        C834   1.400       .  A
C833        C838   1.400       .  A
C833        H840   1.085       .  S
C834        C835   1.416       .  A
C835        C836   1.403       .  A
C835        C842   1.509       .  S
C836        C837   1.403       .  A
C836        H841   1.078       .  S
C837        C838   1.416       .  A
C838        C839   1.498       .  S
C839        H843   1.110       .  S
C839        H844   1.110       .  S
C839        H845   1.098       .  S
C842        H846   1.108       .  S
C842        H847   1.111       .  S
C842        H848   1.111       .  S
C849        C850   1.393       .  A
C849        C854   1.390       .  A
C849        H856   1.077       .  S
C850        C851   1.414       .  A
C851        C852   1.411       .  A
C851        C858   1.505       .  S
C852        C853   1.407       .  A
C852        H857   1.084       .  S
C853        C854   1.420       .  A
C854        C855   1.505       .  S
C855        H859   1.111       .  S
C855        H860   1.100       .  S
C855        H861   1.109       .  S
C858        H862   1.109       .  S
C858        H863   1.103       .  S
C858        H864   1.111       .  S
C865        C866   1.398       .  A
C865        C870   1.396       .  A
C865        H872   1.078       .  S
C866        C867   1.416       .  A
C867        C868   1.411       .  A
C867        C874   1.506       .  S
C868        C869   1.406       .  A
C868        H873   1.084       .  S
C869        C870   1.417       .  A
C870        C871   1.508       .  S
C871        H875   1.111       .  S
C871        H876   1.109       .  S
C871        H877   1.108       .  S
C874        H878   1.109       .  S
C874        H879   1.102       .  S
C874        H880   1.111       .  S
C881        C882   1.405       .  A
C881        C886   1.401       .  A
C881        H888   1.083       .  S
C882        C883   1.413       .  A
C883        C884   1.400       .  A
C883        C890   1.501       .  S
C884        C885   1.402       .  A
C884        H889   1.085       .  S
C885        C886   1.413       .  A
C886        C887   1.508       .  S
C887        H891   1.111       .  S
C887        H892   1.111       .  S
C887        H893   1.110       .  S
C890        H894   1.100       .  S
C890        H895   1.110       .  S
C890        H896   1.109       .  S
C897        C898   1.403       .  A
C897        C902   1.404       .  A
C897        H904   1.084       .  S
C898        C899   1.413       .  A
C899        C900   1.403       .  A
C899        C906   1.508       .  S
C900        C901   1.405       .  A
C900        H905   1.080       .  S
C901        C902   1.415       .  A
C902        C903   1.505       .  S
C903        H907   1.111       .  S
C903        H908   1.107       .  S
C903        H909   1.105       .  S
C906        H910   1.110       .  S
C906        H911   1.111       .  S
C906        H912   1.111       .  S
C913        C914   1.403       .  A
C913        C918   1.402       .  A
C913        H920   1.084       .  S
C914        C915   1.411       .  A
C915        C916   1.401       .  A
C915        C922   1.507       .  S
C916        C917   1.405       .  A
C916        H921   1.079       .  S
C917        C918   1.413       .  A
C918        C919   1.505       .  S
C919        H923   1.111       .  S
C919        H924   1.107       .  S
C919        H925   1.106       .  S
C922        H926   1.110       .  S
C922        H927   1.111       .  S
C922        H928   1.111       .  S
C929        C930   1.406       .  A
C929        C934   1.401       .  A
C929        H936   1.085       .  S
C930        C931   1.417       .  A
C931        C932   1.405       .  A
C931        C938   1.503       .  S
C932        C933   1.403       .  A
C932        H937   1.080       .  S
C933        C934   1.413       .  A
C934        C935   1.503       .  S
C935        H939   1.110       .  S
C935        H940   1.103       .  S
C935        H941   1.110       .  S
C938        H942   1.104       .  S
C938        H943   1.110       .  S
C938        H944   1.111       .  S
C945        C946   1.408       .  A
C945        C950   1.405       .  A
C945        H952   1.081       .  S
C946        C947   1.414       .  A
C947        C948   1.403       .  A
C947        C954   1.502       .  S
C948        C949   1.402       .  A
C948        H953   1.085       .  S
C949        C950   1.411       .  A
C950        C951   1.507       .  S
C951        H955   1.111       .  S
C951        H956   1.110       .  S
C951        H957   1.110       .  S
C954        H958   1.108       .  S
C954        H959   1.098       .  S
C954        H960   1.111       .  S
C961        C962   1.403       .  A
C961        C966   1.405       .  A
C961        H968   1.083       .  S
C962        C963   1.416       .  A
C963        C964   1.404       .  A
C963        C970   1.499       .  S
C964        C965   1.401       .  A
C964        H969   1.084       .  S
C965        C966   1.419       .  A
C966        C967   1.509       .  S
C967        H971   1.111       .  S
C967        H972   1.109       .  S
C967        H973   1.110       .  S
C970        H974   1.098       .  S
C970        H975   1.108       .  S
C970        H976   1.111       .  S
C977        C978   1.404       .  A
C977        C982   1.404       .  A
C977        H984   1.078       .  S
C978        C979   1.415       .  A
C979        C980   1.403       .  A
C979        C986   1.504       .  S
C980        C981   1.406       .  A
C980        H985   1.085       .  S
C981        C982   1.415       .  A
C982        C983   1.508       .  S
C983        H987   1.111       .  S
C983        H988   1.110       .  S
C983        H989   1.110       .  S
C986        H990   1.104       .  S
C986        H991   1.111       .  S
C986        H992   1.110       .  S
C993        C994   1.399       .  A
C993        C998   1.396       .  A
C993       H1000   1.080       .  S
C994        C995   1.412       .  A
C995        C996   1.409       .  A
C995       C1002   1.506       .  S
C996        C997   1.407       .  A
C996       H1001   1.084       .  S
C997        C998   1.416       .  A
C998        C999   1.510       .  S
C999       H1003   1.111       .  S
C999       H1004   1.110       .  S
C999       H1005   1.108       .  S
C1002      H1006   1.109       .  S
C1002      H1007   1.103       .  S
C1002      H1008   1.111       .  S
C1009      C1010   1.404       .  A
C1009      C1014   1.404       .  A
C1009      H1016   1.084       .  S
C1010      C1011   1.412       .  A
C1011      C1012   1.402       .  A
C1011      C1018   1.508       .  S
C1012      C1013   1.406       .  A
C1012      H1017   1.078       .  S
C1013      C1014   1.414       .  A
C1014      C1015   1.505       .  S
C1015      H1019   1.111       .  S
C1015      H1020   1.107       .  S
C1015      H1021   1.105       .  S
C1018      H1022   1.110       .  S
C1018      H1023   1.111       .  S
C1018      H1024   1.111       .  S
C1025      C1026   1.405       .  A
C1025      C1030   1.404       .  A
C1025      H1032   1.080       .  S
C1026      C1027   1.416       .  A
C1027      C1028   1.404       .  A
C1027      C1034   1.504       .  S
C1028      C1029   1.402       .  A
C1028      H1033   1.084       .  S
C1029      C1030   1.413       .  A
C1030      C1031   1.508       .  S
C1031      H1035   1.111       .  S
C1031      H1036   1.110       .  S
C1031      H1037   1.111       .  S
C1034      H1038   1.107       .  S
C1034      H1039   1.104       .  S
C1034      H1040   1.111       .  S
C1041      C1042   1.408       .  A
C1041      C1046   1.403       .  A
C1041      H1048   1.083       .  S
C1042      C1043   1.415       .  A
C1043      C1044   1.402       .  A
C1043      C1050   1.501       .  S
C1044      C1045   1.403       .  A
C1044      H1049   1.085       .  S
C1045      C1046   1.410       .  A
C1046      C1047   1.507       .  S
C1047      H1051   1.111       .  S
C1047      H1052   1.110       .  S
C1047      H1053   1.110       .  S
C1050      H1054   1.099       .  S
C1050      H1055   1.110       .  S
C1050      H1056   1.110       .  S
C1057      C1058   1.404       .  A
C1057      C1062   1.407       .  A
C1057      H1064   1.084       .  S
C1058      C1059   1.417       .  A
C1059      C1060   1.398       .  A
C1059      C1066   1.502       .  S
C1060      C1061   1.398       .  A
C1060      H1065   1.085       .  S
C1061      C1062   1.417       .  A
C1062      C1063   1.508       .  S
C1063      H1067   1.111       .  S
C1063      H1068   1.110       .  S
C1063      H1069   1.109       .  S
C1066      H1070   1.101       .  S
C1066      H1071   1.110       .  S
C1066      H1072   1.110       .  S
C1073      C1074   1.402       .  A
C1073      C1078   1.407       .  A
C1073      H1080   1.084       .  S
C1074      C1075   1.415       .  A
C1075      C1076   1.398       .  A
C1075      C1082   1.508       .  S
C1076      C1077   1.399       .  A
C1076      H1081   1.077       .  S
C1077      C1078   1.416       .  A
C1078      C1079   1.505       .  S
C1079      H1083   1.111       .  S
C1079      H1084   1.108       .  S
C1079      H1085   1.103       .  S
C1082      H1086   1.110       .  S
C1082      H1087   1.108       .  S
C1082      H1088   1.111       .  S
C1089      C1090   1.400       .  A
C1089      C1094   1.397       .  A
C1089      H1096   1.085       .  S
C1090      C1091   1.413       .  A
C1091      C1092   1.405       .  A
C1091      C1098   1.507       .  S
C1092      C1093   1.407       .  A
C1092      H1097   1.081       .  S
C1093      C1094   1.415       .  A
C1094      C1095   1.502       .  S
C1095      H1099   1.110       .  S
C1095      H1100   1.097       .  S
C1095      H1101   1.110       .  S
C1098      H1102   1.111       .  S
C1098      H1103   1.110       .  S
C1098      H1104   1.111       .  S
C1105      C1106   1.400       .  A
C1105      C1110   1.401       .  A
C1105      H1112   1.085       .  S
C1106      C1107   1.417       .  A
C1107      C1108   1.408       .  A
C1107      C1114   1.507       .  S
C1108      C1109   1.404       .  A
C1108      H1113   1.081       .  S
C1109      C1110   1.419       .  A
C1110      C1111   1.503       .  S
C1111      H1115   1.111       .  S
C1111      H1116   1.110       .  S
C1111      H1117   1.104       .  S
C1114      H1118   1.110       .  S
C1114      H1119   1.109       .  S
C1114      H1120   1.111       .  S
C1121      C1122   1.401       .  A
C1121      C1126   1.403       .  A
C1121      H1128   1.079       .  S
C1122      C1123   1.415       .  A
C1123      C1124   1.409       .  A
C1123      C1130   1.502       .  S
C1124      C1125   1.405       .  A
C1124      H1129   1.084       .  S
C1125      C1126   1.421       .  A
C1126      C1127   1.510       .  S
C1127      H1131   1.111       .  S
C1127      H1132   1.109       .  S
C1127      H1133   1.110       .  S
C1130      H1134   1.102       .  S
C1130      H1135   1.109       .  S
C1130      H1136   1.111       .  S
C1137      C1138   1.403       .  A
C1137      C1142   1.397       .  A
C1137      H1144   1.085       .  S
C1138      C1139   1.414       .  A
C1139      C1140   1.410       .  A
C1139      C1146   1.506       .  S
C1140      C1141   1.409       .  A
C1140      H1145   1.083       .  S
C1141      C1142   1.413       .  A
C1142      C1143   1.498       .  S
C1143      H1147   1.110       .  S
C1143      H1148   1.095       .  S
C1143      H1149   1.110       .  S
C1146      H1150   1.110       .  S
C1146      H1151   1.110       .  S
C1146      H1152   1.111       .  S
C1153      C1154   1.398       .  A
C1153      C1158   1.394       .  A
C1153      H1160   1.078       .  S
C1154      C1155   1.416       .  A
C1155      C1156   1.411       .  A
C1155      C1162   1.505       .  S
C1156      C1157   1.406       .  A
C1156      H1161   1.084       .  S
C1157      C1158   1.419       .  A
C1158      C1159   1.511       .  S
C1159      H1163   1.111       .  S
C1159      H1164   1.109       .  S
C1159      H1165   1.109       .  S
C1162      H1166   1.104       .  S
C1162      H1167   1.108       .  S
C1162      H1168   1.111       .  S
C1169      C1170   1.406       .  A
C1169      C1174   1.410       .  A
C1169      H1176   1.080       .  S
C1170      C1171   1.413       .  A
C1171      C1172   1.393       .  A
C1171      C1178   1.502       .  S
C1172      C1173   1.405       .  A
C1172      H1177   1.085       .  S
C1173      C1174   1.417       .  A
C1174      C1175   1.506       .  S
C1175      H1179   1.111       .  S
C1175      H1180   1.110       .  S
C1175      H1181   1.110       .  S
C1178      H1182   1.111       .  S
C1178      H1183   1.095       .  S
C1178      H1184   1.110       .  S
C1185      C1186   1.406       .  A
C1185      C1190   1.408       .  A
C1185      H1192   1.081       .  S
C1186      C1187   1.422       .  A
C1187      C1188   1.399       .  A
C1187      C1194   1.503       .  S
C1188      C1189   1.397       .  A
C1188      H1193   1.085       .  S
C1189      C1190   1.413       .  A
C1190      C1191   1.507       .  S
C1191      H1195   1.111       .  S
C1191      H1196   1.110       .  S
C1191      H1197   1.109       .  S
C1194      H1198   1.097       .  S
C1194      H1199   1.111       .  S
C1194      H1200   1.110       .  S
C1201      C1202   1.403       .  A
C1201      C1206   1.405       .  A
C1201      H1208   1.081       .  S
C1202      C1203   1.417       .  A
C1203      C1204   1.404       .  A
C1203      C1210   1.504       .  S
C1204      C1205   1.401       .  A
C1204      H1209   1.084       .  S
C1205      C1206   1.415       .  A
C1206      C1207   1.508       .  S
C1207      H1211   1.111       .  S
C1207      H1212   1.108       .  S
C1207      H1213   1.110       .  S
C1210      H1214   1.100       .  S
C1210      H1215   1.108       .  S
C1210      H1216   1.111       .  S
C1217      C1218   1.404       .  A
C1217      C1222   1.408       .  A
C1217      H1224   1.081       .  S
C1218      C1219   1.411       .  A
C1219      C1220   1.393       .  A
C1219      C1226   1.506       .  S
C1220      C1221   1.407       .  A
C1220      H1225   1.084       .  S
C1221      C1222   1.417       .  A
C1222      C1223   1.506       .  S
C1223      H1227   1.111       .  S
C1223      H1228   1.110       .  S
C1223      H1229   1.110       .  S
C1226      H1230   1.110       .  S
C1226      H1231   1.104       .  S
C1226      H1232   1.111       .  S
C1233      C1234   1.409       .  A
C1233      C1238   1.403       .  A
C1233      H1240   1.083       .  S
C1234      C1235   1.414       .  A
C1235      C1236   1.400       .  A
C1235      C1242   1.501       .  S
C1236      C1237   1.403       .  A
C1236      H1241   1.085       .  S
C1237      C1238   1.410       .  A
C1238      C1239   1.507       .  S
C1239      H1243   1.111       .  S
C1239      H1244   1.110       .  S
C1239      H1245   1.110       .  S
C1242      H1246   1.110       .  S
C1242      H1247   1.098       .  S
C1242      H1248   1.110       .  S
C1249      C1250   1.405       .  A
C1249      C1254   1.407       .  A
C1249      H1256   1.083       .  S
C1250      C1251   1.416       .  A
C1251      C1252   1.401       .  A
C1251      C1258   1.501       .  S
C1252      C1253   1.400       .  A
C1252      H1257   1.085       .  S
C1253      C1254   1.417       .  A
C1254      C1255   1.507       .  S
C1255      H1259   1.111       .  S
C1255      H1260   1.110       .  S
C1255      H1261   1.109       .  S
C1258      H1262   1.101       .  S
C1258      H1263   1.110       .  S
C1258      H1264   1.110       .  S
C1265      C1266   1.405       .  A
C1265      C1270   1.402       .  A
C1265      H1272   1.073       .  S
C1266      C1267   1.415       .  A
C1267      C1268   1.406       .  A
C1267      C1274   1.505       .  S
C1268      C1269   1.406       .  A
C1268      H1273   1.084       .  S
C1269      C1270   1.415       .  A
C1270      C1271   1.509       .  S
C1271      H1275   1.111       .  S
C1271      H1276   1.110       .  S
C1271      H1277   1.110       .  S
C1274      H1278   1.101       .  S
C1274      H1279   1.107       .  S
C1274      H1280   1.111       .  S
C1281      C1282   1.403       .  A
C1281      C1286   1.404       .  A
C1281      H1288   1.084       .  S
C1282      C1283   1.416       .  A
C1283      C1284   1.404       .  A
C1283      C1290   1.508       .  S
C1284      C1285   1.402       .  A
C1284      H1289   1.079       .  S
C1285      C1286   1.414       .  A
C1286      C1287   1.504       .  S
C1287      H1291   1.111       .  S
C1287      H1292   1.100       .  S
C1287      H1293   1.109       .  S
C1290      H1294   1.108       .  S
C1290      H1295   1.110       .  S
C1290      H1296   1.111       .  S
C1297      C1298   1.403       .  A
C1297      C1302   1.407       .  A
C1297      H1304   1.083       .  S
C1298      C1299   1.420       .  A
C1299      C1300   1.398       .  A
C1299      C1306   1.505       .  S
C1300      C1301   1.397       .  A
C1300      H1305   1.085       .  S
C1301      C1302   1.415       .  A
C1302      C1303   1.507       .  S
C1303      H1307   1.111       .  S
C1303      H1308   1.110       .  S
C1303      H1309   1.109       .  S
C1306      H1310   1.103       .  S
C1306      H1311   1.111       .  S
C1306      H1312   1.110       .  S
C1313      C1314   1.404       .  A
C1313      C1318   1.403       .  A
C1313      H1320   1.077       .  S
C1314      C1315   1.416       .  A
C1315      C1316   1.402       .  A
C1315      C1322   1.502       .  S
C1316      C1317   1.401       .  A
C1316      H1321   1.084       .  S
C1317      C1318   1.414       .  A
C1318      C1319   1.508       .  S
C1319      H1323   1.111       .  S
C1319      H1324   1.111       .  S
C1319      H1325   1.109       .  S
C1322      H1326   1.101       .  S
C1322      H1327   1.107       .  S
C1322      H1328   1.111       .  S
C1329      C1330   1.401       .  A
C1329      C1334   1.407       .  A
C1329      H1336   1.082       .  S
C1330      C1331   1.411       .  A
C1331      C1332   1.393       .  A
C1331      C1338   1.506       .  S
C1332      C1333   1.406       .  A
C1332      H1337   1.085       .  S
C1333      C1334   1.418       .  A
C1334      C1335   1.501       .  S
C1335      H1339   1.111       .  S
C1335      H1340   1.104       .  S
C1335      H1341   1.110       .  S
C1338      H1342   1.110       .  S
C1338      H1343   1.104       .  S
C1338      H1344   1.111       .  S
C1345      C1346   1.397       .  A
C1345      C1350   1.398       .  A
C1345      H1352   1.080       .  S
C1346      C1347   1.415       .  A
C1347      C1348   1.406       .  A
C1347      C1354   1.503       .  S
C1348      C1349   1.404       .  A
C1348      H1353   1.084       .  S
C1349      C1350   1.420       .  A
C1350      C1351   1.506       .  S
C1351      H1355   1.111       .  S
C1351      H1356   1.109       .  S
C1351      H1357   1.107       .  S
C1354      H1358   1.100       .  S
C1354      H1359   1.109       .  S
C1354      H1360   1.111       .  S
C1361      C1362   1.405       .  A
C1361      C1366   1.401       .  A
C1361      H1368   1.084       .  S
C1362      C1363   1.415       .  A
C1363      C1364   1.402       .  A
C1363      C1370   1.505       .  S
C1364      C1365   1.403       .  A
C1364      H1369   1.076       .  S
C1365      C1366   1.412       .  A
C1366      C1367   1.505       .  S
C1367      H1371   1.111       .  S
C1367      H1372   1.103       .  S
C1367      H1373   1.107       .  S
C1370      H1374   1.110       .  S
C1370      H1375   1.106       .  S
C1370      H1376   1.111       .  S
C1377      C1378   1.408       .  A
C1377      C1382   1.413       .  A
C1377      H1384   1.081       .  S
C1378      C1379   1.416       .  A
C1379      C1380   1.394       .  A
C1379      C1386   1.504       .  S
C1380      C1381   1.403       .  A
C1380      H1385   1.085       .  S
C1381      C1382   1.416       .  A
C1382      C1383   1.505       .  S
C1383      H1387   1.111       .  S
C1383      H1388   1.110       .  S
C1383      H1389   1.110       .  S
C1386      H1390   1.111       .  S
C1386      H1391   1.098       .  S
C1386      H1392   1.110       .  S
C1393      C1394   1.408       .  A
C1393      C1398   1.408       .  A
C1393      H1400   1.082       .  S
C1394      C1395   1.419       .  A
C1395      C1396   1.401       .  A
C1395      C1402   1.501       .  S
C1396      C1397   1.397       .  A
C1396      H1401   1.084       .  S
C1397      C1398   1.414       .  A
C1398      C1399   1.507       .  S
C1399      H1403   1.111       .  S
C1399      H1404   1.109       .  S
C1399      H1405   1.110       .  S
C1402      H1406   1.100   1_554  S
C1402      H1407   1.104       .  S
C1402      H1408   1.111       .  S
C1409      C1410   1.401       .  A
C1409      C1414   1.404       .  A
C1409      H1416   1.084       .  S
C1410      C1411   1.410       .  A
C1411      C1412   1.403       .  A
C1411      C1418   1.508       .  S
C1412      C1413   1.409       .  A
C1412      H1417   1.082       .  S
C1413      C1414   1.414       .  A
C1414      C1415   1.503       .  S
C1415      H1419   1.111       .  S
C1415      H1420   1.108       .  S
C1415      H1421   1.104       .  S
C1418      H1422   1.110       .  S
C1418      H1423   1.111       .  S
C1418      H1424   1.111       .  S
C1425      C1426   1.403       .  A
C1425      C1430   1.404       .  A
C1425      H1432   1.084       .  S
C1426      C1427   1.412       .  A
C1427      C1428   1.400       .  A
C1427      C1434   1.508       .  S
C1428      C1429   1.405       .  A
C1428      H1433   1.083       .  S
C1429      C1430   1.413       .  A
C1430      C1431   1.504       .  S
C1431      H1435   1.111       .  S
C1431      H1436   1.108       .  S
C1431      H1437   1.100       .  S
C1434      H1438   1.110       .  S
C1434      H1439   1.111       .  S
C1434      H1440   1.111       .  S
C1441      C1442   1.406       .  A
C1441      C1446   1.402       .  A
C1441      H1448   1.082       .  S
C1442      C1443   1.414       .  A
C1443      C1444   1.405       .  A
C1443      C1450   1.504       .  S
C1444      C1445   1.404       .  A
C1444      H1449   1.084       .  S
C1445      C1446   1.412       .  A
C1446      C1447   1.507       .  S
C1447      H1451   1.111       .  S
C1447      H1452   1.110       .  S
C1447      H1453   1.111       .  S
C1450      H1454   1.108       .  S
C1450      H1455   1.099       .  S
C1450      H1456   1.111       .  S
C1457      C1458   1.404       .  A
C1457      C1462   1.399       .  A
C1457      H1464   1.085       .  S
C1458      C1459   1.415       .  A
C1459      C1460   1.407       .  A
C1459      C1466   1.507       .  S
C1460      C1461   1.408       .  A
C1460      H1465   1.078       .  S
C1461      C1462   1.413       .  A
C1462      C1463   1.501       .  S
C1463      H1467   1.110       .  S
C1463      H1468   1.111       .  S
C1463      H1469   1.101       .  S
C1466      H1470   1.110       .  S
C1466      H1471   1.110       .  S
C1466      H1472   1.111       .  S
C1473      C1474   1.407       .  A
C1473      C1478   1.406       .  A
C1473      H1480   1.079       .  S
C1474      C1475   1.413       .  A
C1475      C1476   1.397       .  A
C1475      C1482   1.501       .  S
C1476      C1477   1.403       .  A
C1476      H1481   1.085       .  S
C1477      C1478   1.415       .  A
C1478      C1479   1.507       .  S
C1479      H1483   1.111       .  S
C1479      H1484   1.110       .  S
C1479      H1485   1.110       .  S
C1482      H1486   1.111       .  S
C1482      H1487   1.100       .  S
C1482      H1488   1.110       .  S
C1489      C1490   1.406       .  A
C1489      C1494   1.405       .  A
C1489      H1496   1.078       .  S
C1490      C1491   1.416       .  A
C1491      C1492   1.402       .  A
C1491      C1498   1.502       .  S
C1492      C1493   1.402       .  A
C1492      H1497   1.085       .  S
C1493      C1494   1.412       .  A
C1494      C1495   1.507       .  S
C1495      H1499   1.111       .  S
C1495      H1500   1.110       .  S
C1495      H1501   1.110       .  S
C1498      H1502   1.100       .  S
C1498      H1503   1.107       .  S
C1498      H1504   1.111       .  S
C1505      C1506   1.404       .  A
C1505      C1510   1.393       .  A
C1505      H1512   1.085       .  S
C1506      C1507   1.417       .  A
C1507      C1508   1.412       .  A
C1507      C1514   1.505       .  S
C1508      C1509   1.406       .  A
C1508      H1513   1.082       .  S
C1509      C1510   1.414       .  A
C1510      C1511   1.506       .  S
C1511      H1515   1.111       .  S
C1511      H1516   1.110       .  S
C1511      H1517   1.103       .  S
C1514      H1518   1.110       .  S
C1514      H1519   1.110       .  S
C1514      H1520   1.111       .  S
C1521      C1522   1.405       .  A
C1521      C1526   1.404       .  A
C1521      H1528   1.078       .  S
C1522      C1523   1.415       .  A
C1523      C1524   1.402       .  A
C1523      C1530   1.502       .  S
C1524      C1525   1.402       .  A
C1524      H1529   1.085       .  S
C1525      C1526   1.412       .  A
C1526      C1527   1.506       .  S
C1527      H1531   1.111       .  S
C1527      H1532   1.110       .  S
C1527      H1533   1.108       .  S
C1530      H1534   1.101       .  S
C1530      H1535   1.107       .  S
C1530      H1536   1.111       .  S
C1537      C1538   1.406       .  A
C1537      C1542   1.412       .  A
C1537      H1544   1.082       .  S
C1538      C1539   1.414       .  A
C1539      C1540   1.393       .  A
C1539      C1546   1.507       .  S
C1540      C1541   1.404       .  A
C1540      H1545   1.085       .  S
C1541      C1542   1.418       .  A
C1542      C1543   1.505       .  S
C1543      H1547   1.111       .  S
C1543      H1548   1.110       .  S
C1543      H1549   1.110       .  S
C1546      H1550   1.103       .  S
C1546      H1551   1.111       .  S
C1546      H1552   1.110       .  S
C1553      C1554   1.402       .  A
C1553      C1558   1.408       .  A
C1553      H1560   1.080       .  S
C1554      C1555   1.412       .  A
C1555      C1556   1.399       .  A
C1555      C1562   1.506       .  S
C1556      C1557   1.405       .  A
C1556      H1561   1.084       .  S
C1557      C1558   1.420       .  A
C1558      C1559   1.507       .  S
C1559      H1563   1.111       .  S
C1559      H1564   1.110       .  S
C1559      H1565   1.110       .  S
C1562      H1566   1.107       .  S
C1562      H1567   1.102       .  S
C1562      H1568   1.111       .  S
C1569      C1570   1.405       .  A
C1569      C1574   1.404       .  A
C1569      H1576   1.084       .  S
C1570      C1571   1.419       .  A
C1571      C1572   1.401       .  A
C1571      C1578   1.507       .  S
C1572      C1573   1.401       .  A
C1572      H1577   1.080       .  S
C1573      C1574   1.414       .  A
C1574      C1575   1.502       .  S
C1575      H1579   1.110       .  S
C1575      H1580   1.103       .  S
C1575      H1581   1.109       .  S
C1578      H1582   1.106       .  S
C1578      H1583   1.109       .  S
C1578      H1584   1.111       .  S
C1585      C1586   1.399       .  A
C1585      C1590   1.400       .  A
C1585      H1592   1.085       .  S
C1586      C1587   1.413       .  A
C1587      C1588   1.407       .  A
C1587      C1594   1.503       .  S
C1588      C1589   1.404       .  A
C1588      H1593   1.081       .  S
C1589      C1590   1.419       .  A
C1590      C1591   1.504       .  S
C1591      H1595   1.110       .  S
C1591      H1596   1.101       .  S
C1591      H1597   1.111       .  S
C1594      H1598   1.110       .  S
C1594      H1599   1.109       .  S
C1594      H1600   1.111       .  S
C1601      C1602   1.404       .  A
C1601      C1606   1.405       .  A
C1601      H1608   1.083       .  S
C1602      C1603   1.411       .  A
C1603      C1604   1.402       .  A
C1603      C1610   1.499       .  S
C1604      C1605   1.405       .  A
C1604      H1609   1.084       .  S
C1605      C1606   1.419       .  A
C1606      C1607   1.509       .  S
C1607      H1611   1.111       .  S
C1607      H1612   1.109       .  S
C1607      H1613   1.110       .  S
C1610      H1614   1.101       .  S
C1610      H1615   1.110       .  S
C1610      H1616   1.109       .  S
C1617      C1618   1.403       .  A
C1617      C1622   1.391       .  A
C1617      H1624   1.085       .  S
C1618      C1619   1.415       .  A
C1619      C1620   1.412       .  A
C1619      C1626   1.504       .  S
C1620      C1621   1.407       .  A
C1620      H1625   1.080       .  S
C1621      C1622   1.415       .  A
C1622      C1623   1.503       .  S
C1623      H1627   1.110       .  S
C1623      H1628   1.111       .  S
C1623      H1629   1.096       .  S
C1626      H1630   1.110       .  S
C1626      H1631   1.108       .  S
C1626      H1632   1.111       .  S
C1633      C1634   1.404       .  A
C1633      C1638   1.398       .  A
C1633      H1640   1.085       .  S
C1634      C1635   1.413       .  A
C1635      C1636   1.407       .  A
C1635      C1642   1.506       .  S
C1636      C1637   1.409       .  A
C1636      H1641   1.080       .  S
C1637      C1638   1.413       .  A
C1638      C1639   1.500       .  S
C1639      H1643   1.110       .  S
C1639      H1644   1.111       .  S
C1639      H1645   1.097       .  S
C1642      H1646   1.110       .  S
C1642      H1647   1.110       .  S
C1642      H1648   1.111       .  S
C1649      C1650   1.402       .  A
C1649      C1654   1.403       .  A
C1649      H1656   1.084       .  S
C1650      C1651   1.416       .  A
C1651      C1652   1.407       .  A
C1651      C1658   1.506       .  S
C1652      C1653   1.405       .  A
C1652      H1657   1.081       .  S
C1653      C1654   1.417       .  A
C1654      C1655   1.502       .  S
C1655      H1659   1.110       .  S
C1655      H1660   1.103       .  S
C1655      H1661   1.111       .  S
C1658      H1662   1.109       .  S
C1658      H1663   1.108       .  S
C1658      H1664   1.111       .  S
C1665      C1666   1.408       .  A
C1665      C1670   1.402       .  A
C1665      H1672   1.084       .  S
C1666      C1667   1.416       .  A
C1667      C1668   1.401       .  A
C1667      C1674   1.509       .  S
C1668      C1669   1.403       .  A
C1668      H1673   1.078       .  S
C1669      C1670   1.413       .  A
C1670      C1671   1.505       .  S
C1671      H1675   1.110       .  S
C1671      H1676   1.106       .  S
C1671      H1677   1.111       .  S
C1674      H1678   1.110       .  S
C1674      H1679   1.110       .  S
C1674      H1680   1.111       .  S
C1681      C1682   1.406       .  A
C1681      C1686   1.399       .  A
C1681      H1688   1.084       .  S
C1682      C1683   1.418       .  A
C1683      C1684   1.407       .  A
C1683      C1690   1.502       .  S
C1684      C1685   1.402       .  A
C1684      H1689   1.080       .  S
C1685      C1686   1.413       .  A
C1686      C1687   1.507       .  S
C1687      H1691   1.111       .  S
C1687      H1692   1.101       .  S
C1687      H1693   1.106       .  S
C1690      H1694   1.110       .  S
C1690      H1695   1.107       .  S
C1690      H1696   1.111       .  S
C1697      C1698   1.405       .  A
C1697      C1702   1.404       .  A
C1697      H1704   1.082       .  S
C1698      C1699   1.415       .  A
C1699      C1700   1.400       .  A
C1699      C1706   1.499       .  S
C1700      C1701   1.399       .  A
C1700      H1705   1.085       .  S
C1701      C1702   1.414       .  A
C1702      C1703   1.506       .  S
C1703      H1707   1.111       .  S
C1703      H1708   1.108       .  S
C1703      H1709   1.111       .  S
C1706      H1710   1.107       .  S
C1706      H1711   1.098       .  S
C1706      H1712   1.111       .  S
C1713      C1714   1.412       .  A
C1713      C1718   1.412       .  A
C1713      H1720   1.083       .  S
C1714      C1715   1.418       .  A
C1715      C1716   1.396       .  A
C1715      C1722   1.499       .  S
C1716      C1717   1.400       .  A
C1716      H1721   1.086       .  S
C1717      C1718   1.413       .  A
C1718      C1719   1.505       .  S
C1719      H1723   1.111       .  S
C1719      H1724   1.111       .  S
C1719      H1725   1.110       .  S
C1722      H1726   1.094       .  S
C1722      H1727   1.110       .  S
C1722      H1728   1.109       .  S
C1729      C1730   1.410       .  A
C1729      C1734   1.411       .  A
C1729      H1736   1.083       .  S
C1730      C1731   1.417       .  A
C1731      C1732   1.397       .  A
C1731      C1738   1.499       .  S
C1732      C1733   1.401       .  A
C1732      H1737   1.085       .  S
C1733      C1734   1.414       .  A
C1734      C1735   1.505       .  S
C1735      H1739   1.111       .  S
C1735      H1740   1.108       .  S
C1735      H1741   1.110       .  S
C1738      H1742   1.095       .  S
C1738      H1743   1.109       .  S
C1738      H1744   1.110       .  S
C1745      C1746   1.411       .  A
C1745      C1750   1.410       .  A
C1745      H1752   1.082       .  S
C1746      C1747   1.417       .  A
C1747      C1748   1.400       .  A
C1747      C1754   1.496       .  S
C1748      C1749   1.398       .  A
C1748      H1753   1.085       .  S
C1749      C1750   1.412       .  A
C1750      C1751   1.506       .  S
C1751      H1755   1.111       .  S
C1751      H1756   1.110       .  S
C1751      H1757   1.111       .  S
C1754      H1758   1.106       .  S
C1754      H1759   1.096       .  S
C1754      H1760   1.111       .  S
C1761      C1762   1.411       .  A
C1761      C1766   1.411       .  A
C1761      H1768   1.082       .  S
C1762      C1763   1.416       .  A
C1763      C1764   1.399       .  A
C1763      C1770   1.497       .  S
C1764      C1765   1.400       .  A
C1764      H1769   1.085       .  S
C1765      C1766   1.413       .  A
C1766      C1767   1.504       .  S
C1767      H1771   1.111       .  S
C1767      H1772   1.110       .  S
C1767      H1773   1.107       .  S
C1770      H1774   1.097       .  S
C1770      H1775   1.106       .  S
C1770      H1776   1.111       .  S
C1777      C1778   1.405       .  A
C1777      C1782   1.400       .  A
C1777      H1784   1.081       .  S
C1778      C1779   1.415       .  A
C1779      C1780   1.405       .  A
C1779      C1786   1.503       .  S
C1780      C1781   1.403       .  A
C1780      H1785   1.084       .  S
C1781      C1782   1.413       .  A
C1782      C1783   1.507       .  S
C1783      H1787   1.111       .  S
C1783      H1788   1.111       .  S
C1783      H1789   1.105       .  S
C1786      H1790   1.101       .  S
C1786      H1791   1.108       .  S
C1786      H1792   1.111       .  S
C1793      C1794   1.407       .  A
C1793      C1798   1.407       .  A
C1793      H1800   1.081       .  S
C1794      C1795   1.412       .  A
C1795      C1796   1.400       .  A
C1795      C1802   1.501       .  S
C1796      C1797   1.406       .  A
C1796      H1801   1.085       .  S
C1797      C1798   1.416       .  A
C1798      C1799   1.507       .  S
C1799      H1803   1.111       .  S
C1799      H1804   1.110       .  S
C1799      H1805   1.110       .  S
C1802      H1806   1.101       .  S
C1802      H1807   1.110       .  S
C1802      H1808   1.110       .  S
C1809      C1810   1.405       .  A
C1809      C1814   1.403       .  A
C1809      H1816   1.085       .  S
C1810      C1811   1.414       .  A
C1811      C1812   1.404       .  A
C1811      C1818   1.507       .  S
C1812      C1813   1.407       .  A
C1812      H1817   1.081       .  S
C1813      C1814   1.414       .  A
C1814      C1815   1.501       .  S
C1815      H1819   1.110       .  S
C1815      H1820   1.102       .  S
C1815      H1821   1.110       .  S
C1818      H1822   1.111       .  S
C1818      H1823   1.109       .  S
C1818      H1824   1.111       .  S
C1825      C1826   1.405       .  A
C1825      C1830   1.403       .  A
C1825      H1832   1.079       .  S
C1826      C1827   1.413       .  A
C1827      C1828   1.402       .  A
C1827      C1834   1.503       .  S
C1828      C1829   1.404       .  A
C1828      H1833   1.084       .  S
C1829      C1830   1.414       .  A
C1830      C1831   1.506       .  S
C1831      H1835   1.111       .  S
C1831      H1836   1.105       .  S
C1831      H1837   1.110       .  S
C1834      H1838   1.107       .  S
C1834      H1839   1.101       .  S
C1834      H1840   1.111       .  S
C1841      C1842   1.406       .  A
C1841      C1846   1.412       .  A
C1841      H1848   1.078       .  S
C1842      C1843   1.416       .  A
C1843      C1844   1.393       .  A
C1843      C1850   1.502       .  S
C1844      C1845   1.403       .  A
C1844      H1849   1.085       .  S
C1845      C1846   1.417       .  A
C1846      C1847   1.505       .  S
C1847      H1851   1.111       .  S
C1847      H1852   1.110       .  S
C1847      H1853   1.111       .  S
C1850      H1854   1.111       .  S
C1850      H1855   1.094       .  S
C1850      H1856   1.110       .  S
C1857      C1858   1.401       .  A
C1857      C1862   1.404       .  A
C1857      H1864   1.081       .  S
C1858      C1859   1.415       .  A
C1859      C1860   1.400       .  A
C1859      C1866   1.507       .  S
C1860      C1861   1.401       .  A
C1860      H1865   1.084       .  S
C1861      C1862   1.417       .  A
C1862      C1863   1.506       .  S
C1863      H1867   1.111       .  S
C1863      H1868   1.108       .  S
C1863      H1869   1.110       .  S
C1866      H1870   1.099       .  S
C1866      H1871   1.107       .  S
C1866      H1872   1.111       .  S
C1873      C1874   1.397       .  A
C1873      C1878   1.401       .  A
C1873      H1880   1.082       .  S
C1874      C1875   1.416       .  A
C1875      C1876   1.400       .  A
C1875      C1882   1.506       .  S
C1876      C1877   1.399       .  A
C1876      H1881   1.084       .  S
C1877      C1878   1.415       .  A
C1878      C1879   1.502       .  S
C1879      H1883   1.111       .  S
C1879      H1884   1.108       .  S
C1879      H1885   1.110       .  S
C1882      H1886   1.101   1_554  S
C1882      H1887   1.107       .  S
C1882      H1888   1.111       .  S
C1889      C1890   1.402       .  A
C1889      C1894   1.407       .  A
C1889      H1896   1.078       .  S
C1890      C1891   1.424       .  A
C1891      C1892   1.400       .  A
C1891      C1898   1.501       .  S
C1892      C1893   1.394       .  A
C1892      H1897   1.085       .  S
C1893      C1894   1.413       .  A
C1894      C1895   1.500       .  S
C1895      H1899   1.111       .  S
C1895      H1900   1.109       .  S
C1895      H1901   1.110       .  S
C1898      H1902   1.111   1_556  S
C1898      H1903   1.094   1_556  S
C1898      H1904   1.111       .  S
C1905      C1906   1.399       .  A
C1905      C1910   1.395       .  A
C1905      H1912   1.077       .  S
C1906      C1907   1.414       .  A
C1907      C1908   1.409       .  A
C1907      C1914   1.505       .  S
C1908      C1909   1.405       .  A
C1908      H1913   1.084       .  S
C1909      C1910   1.415       .  A
C1910      C1911   1.511       .  S
C1911      H1915   1.111       .  S
C1911      H1916   1.108       .  S
C1911      H1917   1.110       .  S
C1914      H1918   1.100       .  S
C1914      H1919   1.109       .  S
C1914      H1920   1.111       .  S
C1921      C1922   1.403       .  A
C1921      C1926   1.405       .  A
C1921      H1928   1.078       .  S
C1922      C1923   1.409       .  A
C1923      C1924   1.407       .  A
C1923      C1930   1.506       .  S
C1924      C1925   1.412       .  A
C1924      H1929   1.084       .  S
C1925      C1926   1.416       .  A
C1926      C1927   1.505       .  S
C1927      H1931   1.111       .  S
C1927      H1932   1.110       .  S
C1927      H1933   1.107       .  S
C1930      H1934   1.102       .  S
C1930      H1935   1.110       .  S
C1930      H1936   1.111       .  S
C1937      C1938   1.401       .  A
C1937      C1942   1.403       .  A
C1937      H1944   1.084       .  S
C1938      C1939   1.410       .  A
C1939      C1940   1.400       .  A
C1939      C1946   1.506       .  S
C1940      C1941   1.405       .  A
C1940      H1945   1.084       .  S
C1941      C1942   1.414       .  A
C1942      C1943   1.504       .  S
C1943      H1947   1.111       .  S
C1943      H1948   1.100       .  S
C1943      H1949   1.109       .  S
C1946      H1950   1.110       .  S
C1946      H1951   1.110       .  S
C1946      H1952   1.111       .  S
C1953      C1954   1.408       .  A
C1953      C1958   1.409       .  A
C1953      H1960   1.081       .  S
C1954      C1955   1.419       .  A
C1955      C1956   1.399       .  A
C1955      C1962   1.500   1_556  S
C1956      C1957   1.397       .  A
C1956      H1961   1.085       .  S
C1957      C1958   1.411       .  A
C1958      C1959   1.504       .  S
C1959      H1963   1.111       .  S
C1959      H1964   1.111       .  S
C1959      H1965   1.109       .  S
C1962      H1966   1.103       .  S
C1962      H1967   1.110       .  S
C1962      H1968   1.111   1_554  S
C1969      C1970   1.404       .  A
C1969      C1974   1.400       .  A
C1969      H1976   1.085       .  S
C1970      C1971   1.411       .  A
C1971      C1972   1.407       .  A
C1971      C1978   1.506       .  S
C1972      C1973   1.409       .  A
C1972      H1977   1.081       .  S
C1973      C1974   1.413       .  A
C1974      C1975   1.503       .  S
C1975      H1979   1.111       .  S
C1975      H1980   1.102       .  S
C1975      H1981   1.105       .  S
C1978      H1982   1.110       .  S
C1978      H1983   1.110       .  S
C1978      H1984   1.111       .  S
C1985      C1986   1.404       .  A
C1985      C1990   1.407       .  A
C1985      H1992   1.083       .  S
C1986      C1987   1.417       .  A
C1987      C1988   1.402       .  A
C1987      C1994   1.494       .  S
C1988      C1989   1.400       .  A
C1988      H1993   1.084       .  S
C1989      C1990   1.422       .  A
C1990      C1991   1.509       .  S
C1991      H1995   1.111       .  S
C1991      H1996   1.110       .  S
C1991      H1997   1.109       .  S
C1994      H1998   1.111       .  S
C1994      H1999   1.092       .  S
C1994      H2000   1.110       .  S
C2001      C2002   1.401       .  A
C2001      C2006   1.403       .  A
C2001      H2008   1.075       .  S
C2002      C2003   1.414       .  A
C2003      C2004   1.405       .  A
C2003      C2010   1.505       .  S
C2004      C2005   1.407       .  A
C2004      H2009   1.084       .  S
C2005      C2006   1.417       .  A
C2006      C2007   1.505       .  S
C2007      H2011   1.111       .  S
C2007      H2012   1.110       .  S
C2007      H2013   1.105       .  S
C2010      H2014   1.102       .  S
C2010      H2015   1.107       .  S
C2010      H2016   1.111       .  S
C2017      C2018   1.406       .  A
C2017      C2022   1.407       .  A
C2017      H2024   1.081       .  S
C2018      C2019   1.422       .  A
C2019      C2020   1.397       .  A
C2019      C2026   1.506       .  S
C2020      C2021   1.397       .  A
C2020      H2025   1.085       .  S
C2021      C2022   1.413       .  A
C2022      C2023   1.507       .  S
C2023      H2027   1.111       .  S
C2023      H2028   1.109       .  S
C2023      H2029   1.110       .  S
C2026      H2030   1.100       .  S
C2026      H2031   1.110       .  S
C2026      H2032   1.111   1_556  S
C2033      C2034   1.400       .  A
C2033      C2038   1.397       .  A
C2033      H2040   1.083       .  S
C2034      C2035   1.415       .  A
C2035      C2036   1.410       .  A
C2035      C2042   1.502       .  S
C2036      C2037   1.408       .  A
C2036      H2041   1.084       .  S
C2037      C2038   1.422       .  A
C2038      C2039   1.508       .  S
C2039      H2043   1.111       .  S
C2039      H2044   1.105       .  S
C2039      H2045   1.109       .  S
C2042      H2046   1.105       .  S
C2042      H2047   1.109       .  S
C2042      H2048   1.110       .  S
C2049      C2050   1.409       .  A
C2049      C2054   1.412       .  A
C2049      H2056   1.084       .  S
C2050      C2051   1.414       .  A
C2051      C2052   1.393       .  A
C2051      C2058   1.503       .  S
C2052      C2053   1.402       .  A
C2052      H2057   1.085       .  S
C2053      C2054   1.416       .  A
C2054      C2055   1.505       .  S
C2055      H2059   1.111       .  S
C2055      H2060   1.110       .  S
C2055      H2061   1.110       .  S
C2058      H2062   1.100       .  S
C2058      H2063   1.110       .  S
C2058      H2064   1.110       .  S
C2065      C2066   1.403       .  A
C2065      C2070   1.404       .  A
C2065      H2072   1.084       .  S
C2066      C2067   1.412       .  A
C2067      C2068   1.401       .  A
C2067      C2074   1.508       .  S
C2068      C2069   1.404       .  A
C2068      H2073   1.079       .  S
C2069      C2070   1.415       .  A
C2070      C2071   1.505       .  S
C2071      H2075   1.111       .  S
C2071      H2076   1.108       .  S
C2071      H2077   1.105       .  S
C2074      H2078   1.110       .  S
C2074      H2079   1.111       .  S
C2074      H2080   1.111       .  S
C2081      C2082   1.409       .  A
C2081      C2086   1.407       .  A
C2081      H2088   1.078       .  S
C2082      C2083   1.416       .  A
C2083      C2084   1.404       .  A
C2083      C2090   1.500       .  S
C2084      C2085   1.402       .  A
C2084      H2089   1.085       .  S
C2085      C2086   1.411       .  A
C2086      C2087   1.507       .  S
C2087      H2091   1.111       .  S
C2087      H2092   1.109       .  S
C2087      H2093   1.111       .  S
C2090      H2094   1.107       .  S
C2090      H2095   1.103       .  S
C2090      H2096   1.111       .  S
C2097      C2098   1.401       .  A
C2097      C2102   1.403       .  A
C2097      H2104   1.084       .  S
C2098      C2099   1.414       .  A
C2099      C2100   1.404       .  A
C2099      C2106   1.506       .  S
C2100      C2101   1.402       .  A
C2100      H2105   1.078       .  S
C2101      C2102   1.416       .  A
C2102      C2103   1.504       .  S
C2103      H2107   1.110       .  S
C2103      H2108   1.110   1_455  S
C2103      H2109   1.107       .  S
C2106      H2110   1.108       .  S
C2106      H2111   1.110       .  S
C2106      H2112   1.111       .  S
C2113      C2114   1.407       .  A
C2113      C2118   1.411       .  A
C2113      H2120   1.082       .  S
C2114      C2115   1.415       .  A
C2115      C2116   1.391       .  A
C2115      C2122   1.506       .  S
C2116      C2117   1.404       .  A
C2116      H2121   1.085       .  S
C2117      C2118   1.416       .  A
C2118      C2119   1.505       .  S
C2119      H2123   1.111       .  S
C2119      H2124   1.110       .  S
C2119      H2125   1.110       .  S
C2122      H2126   1.111       .  S
C2122      H2127   1.096       .  S
C2122      H2128   1.110       .  S
C2129      C2130   1.407       .  A
C2129      C2134   1.406       .  A
C2129      H2136   1.082       .  S
C2130      C2131   1.412       .  A
C2131      C2132   1.396       .  A
C2131      C2138   1.502       .  S
C2132      C2133   1.402       .  A
C2132      H2137   1.085       .  S
C2133      C2134   1.413       .  A
C2134      C2135   1.506       .  S
C2135      H2139   1.111       .  S
C2135      H2140   1.110       .  S
C2135      H2141   1.110       .  S
C2138      H2142   1.100       .  S
C2138      H2143   1.110       .  S
C2138      H2144   1.110       .  S
C2145      C2146   1.403       .  A
C2145      C2150   1.405       .  A
C2145      H2152   1.084       .  S
C2146      C2147   1.416       .  A
C2147      C2148   1.402       .  A
C2147      C2154   1.497       .  S
C2148      C2149   1.400       .  A
C2148      H2153   1.084       .  S
C2149      C2150   1.420       .  A
C2150      C2151   1.509       .  S
C2151      H2155   1.111       .  S
C2151      H2156   1.110       .  S
C2151      H2157   1.109       .  S
C2154      H2158   1.094       .  S
C2154      H2159   1.109       .  S
C2154      H2160   1.110       .  S
C2161      C2162   1.402       .  A
C2161      C2166   1.395       .  A
C2161      H2168   1.084       .  S
C2162      C2163   1.417       .  A
C2163      C2164   1.410       .  A
C2163      C2170   1.506       .  S
C2164      C2165   1.405       .  A
C2164      H2169   1.081       .  S
C2165      C2166   1.414       .  A
C2166      C2167   1.501       .  S
C2167      H2171   1.111       .  S
C2167      H2172   1.106       .  S
C2167      H2173   1.103       .  S
C2170      H2174   1.110       .  S
C2170      H2175   1.110       .  S
C2170      H2176   1.111       .  S
C2177      C2178   1.403       .  A
C2177      C2182   1.407       .  A
C2177      H2184   1.082       .  S
C2178      C2179   1.419       .  A
C2179      C2180   1.401       .  A
C2179      C2186   1.504       .  S
C2180      C2181   1.400       .  A
C2180      H2185   1.085       .  S
C2181      C2182   1.417       .  A
C2182      C2183   1.505       .  S
C2183      H2187   1.111       .  S
C2183      H2188   1.109       .  S
C2183      H2189   1.108       .  S
C2186      H2190   1.110       .  S
C2186      H2191   1.104       .  S
C2186      H2192   1.110       .  S
C2193      C2194   1.408       .  A
C2193      C2198   1.412       .  A
C2193      H2200   1.081       .  S
C2194      C2195   1.416       .  A
C2195      C2196   1.395       .  A
C2195      C2202   1.502       .  S
C2196      C2197   1.404       .  A
C2196      H2201   1.085       .  S
C2197      C2198   1.416       .  A
C2198      C2199   1.506       .  S
C2199      H2203   1.111       .  S
C2199      H2204   1.110       .  S
C2199      H2205   1.110       .  S
C2202      H2206   1.098       .  S
C2202      H2207   1.110       .  S
C2202      H2208   1.111       .  S
C2209      C2210   1.406       .  A
C2209      C2214   1.408       .  A
C2209      H2216   1.079       .  S
C2210      C2211   1.411       .  A
C2211      C2212   1.400       .  A
C2211      C2218   1.502       .  S
C2212      C2213   1.405       .  A
C2212      H2217   1.084       .  S
C2213      C2214   1.415       .  A
C2214      C2215   1.506       .  S
C2215      H2219   1.111       .  S
C2215      H2220   1.110       .  S
C2215      H2221   1.110       .  S
C2218      H2222   1.102       .  S
C2218      H2223   1.108       .  S
C2218      H2224   1.111       .  S
C2225      C2226   1.408       .  A
C2225      C2230   1.405       .  A
C2225      H2232   1.078       .  S
C2226      C2227   1.417       .  A
C2227      C2228   1.404       .  A
C2227      C2234   1.499       .  S
C2228      C2229   1.400       .  A
C2228      H2233   1.084       .  S
C2229      C2230   1.412       .  A
C2230      C2231   1.508       .  S
C2231      H2235   1.111       .  S
C2231      H2236   1.110       .  S
C2231      H2237   1.111       .  S
C2234      H2238   1.107       .  S
C2234      H2239   1.103       .  S
C2234      H2240   1.111       .  S
C2241      C2242   1.405       .  A
C2241      C2246   1.408       .  A
C2241      H2248   1.084       .  S
C2242      C2243   1.423       .  A
C2243      C2244   1.395       .  A
C2243      C2250   1.508       .  S
C2244      C2245   1.394       .  A
C2244      H2249   1.081       .  S
C2245      C2246   1.414       .  A
C2246      C2247   1.505       .  S
C2247      H2251   1.111       .  S
C2247      H2252   1.109       .  S
C2247      H2253   1.105       .  S
C2250      H2254   1.107       .  S
C2250      H2255   1.109       .  S
C2250      H2256   1.111       .  S
C2257      C2258   1.406       .  A
C2257      C2262   1.410       .  A
C2257      H2264   1.084       .  S
C2258      C2259   1.419       .  A
C2259      C2260   1.397       .  A
C2259      C2266   1.500       .  S
C2260      C2261   1.397       .  A
C2260      H2265   1.085       .  S
C2261      C2262   1.419       .  A
C2262      C2263   1.507       .  S
C2263      H2267   1.111       .  S
C2263      H2268   1.109       .  S
C2263      H2269   1.110       .  S
C2266      H2270   1.095       .  S
C2266      H2271   1.111       .  S
C2266      H2272   1.110       .  S
C2273      C2274   1.399       .  A
C2273      C2278   1.395       .  A
C2273      H2280   1.083       .  S
C2274      C2275   1.411       .  A
C2275      C2276   1.408       .  A
C2275      C2282   1.505       .  S
C2276      C2277   1.408       .  A
C2276      H2281   1.083       .  S
C2277      C2278   1.422       .  A
C2278      C2279   1.511       .  S
C2279      H2283   1.111       .  S
C2279      H2284   1.111       .  S
C2279      H2285   1.109       .  S
C2282      H2286   1.109       .  S
C2282      H2287   1.098       .  S
C2282      H2288   1.111       .  S
