geometry optimzed in LAMMPS
_audit_creation_date              2020-12-01 
_audit_creation_method            'lammps2cif' 
_symmetry_space_group_name_H-M    'P1' 
_symmetry_Int_Tables_number       1 
_symmetry_cell_setting            triclinic 
loop_ 
_symmetry_equiv_pos_as_xyz 
  x,y,z 
_cell_length_a                    22.28131816 
_cell_length_b                    24.032185859184377 
_cell_length_c                    22.894031021138463 
_cell_angle_alpha                 95.7512153071799 
_cell_angle_beta                  90.07337748474481 
_cell_angle_gamma                 89.81694840806384 
loop_ 
_atom_site_label 
_atom_site_type_symbol 
_atom_site_fract_x 
_atom_site_fract_y 
_atom_site_fract_z 
_atom_site_charge 
C1          C  0.20349783  0.17884011  0.17495268     0.88100
C2          C  0.25114258  0.13901261  0.19971445    -0.52100
C3          C  0.28809012  0.16469189  0.24264417     0.11000
C4          C  0.27336580  0.22674039  0.25721497     0.22000
C5          C  0.16960898  0.20579570  0.22972983    -0.52800
C6          C  0.20653119  0.23177329  0.27212562     0.11100
C7          C  0.24145091  0.22741217  0.15551869    -0.52400
C8          C  0.27750391  0.25199715  0.19905263     0.11700
H9          H  0.25665385  0.09542568  0.18298398     0.16200
H10         H  0.30282735  0.24785096  0.29190462     0.02000
H11         H  0.12110893  0.21026401  0.23117198     0.16500
H12         H  0.23832853  0.24221351  0.11232605     0.16300
C13         C  0.18503435  0.47291716  0.44709763     0.31600
C14         C  0.17526725  0.56657865  0.52129751     0.31600
C15         C  0.17360606  0.52641993  0.41803343    -0.04600
C16         C  0.13472087  0.47201220  0.49257930    -0.05400
C17         C  0.24073386  0.48539633  0.48683086    -0.05200
C18         C  0.16866233  0.57429267  0.45616879    -0.04600
C19         C  0.12929152  0.52110039  0.53208661    -0.05300
C20         C  0.23544433  0.53507671  0.52634652    -0.05200
C21         C  0.15498380  0.61778619  0.42322433    -0.30600
N22         N  0.15166919  0.59717413  0.36591565     0.15900
C23         C  0.16290407  0.54128310  0.36202112    -0.30600
H24         H  0.16273884  0.51357196  0.32171620     0.17800
C25         C  0.11517643  0.50288960  0.58621671    -0.29600
N26         N  0.11375057  0.44649549  0.58123861     0.14600
C27         C  0.12401068  0.42773416  0.52487861    -0.29600
C28         C  0.25771893  0.52124222  0.57984529    -0.29900
N29         N  0.27364469  0.46675723  0.57574872     0.15100
H30         H  0.24768274  0.54503577  0.62143680     0.17700
C31         C  0.26621160  0.44559347  0.51936573    -0.29900
H32         H  0.26396322  0.40102790  0.50635545     0.17700
H33         H  0.12819215  0.38390072  0.50895268     0.17700
H34         H  0.14743222  0.66104246  0.43972485     0.17800
H35         H  0.11122844  0.52899500  0.62739617     0.17700
C36         C  0.20092707  0.87822792  0.77339861     0.88100
C37         C  0.24720721  0.91039508  0.73914482    -0.52100
C38         C  0.28081775  0.87676577  0.69977288     0.11000
C39         C  0.26481830  0.81458872  0.69780430     0.22000
C40         C  0.16337072  0.84404676  0.72543807    -0.52800
C41         C  0.19727301  0.81027176  0.68651432     0.11100
C42         C  0.23825339  0.83321411  0.80106241    -0.52400
C43         C  0.27106353  0.79990701  0.76083721     0.11700
H44         H  0.25343073  0.95535636  0.74618275     0.16200
H45         H  0.29195205  0.78716328  0.66580915     0.02000
H46         H  0.11464755  0.84287600  0.72559957     0.16500
H47         H  0.23621672  0.82647418  0.84722410     0.16300
C48         C  0.53474341  0.13726313  0.40415431     0.31600
C49         C  0.60370587  0.17425383  0.49847199     0.31600
C50         C  0.51839462  0.11474509  0.46177995    -0.04600
C51         C  0.60365095  0.12301650  0.39822442    -0.05400
C52         C  0.53537029  0.20151597  0.42061487    -0.05200
C53         C  0.55422393  0.13292606  0.50951813    -0.04600
C54         C  0.63747844  0.14484130  0.44674870    -0.05300
C55         C  0.57237426  0.22105024  0.46921405    -0.05200
C56         C  0.52407933  0.12166947  0.55904737    -0.30600
N57         N  0.47143436  0.09702978  0.54269737     0.15900
C58         C  0.46671467  0.09334669  0.48353244    -0.30600
H59         H  0.42599669  0.08294526  0.45907620     0.17800
C60         C  0.69478130  0.12620992  0.44138918    -0.29600
N61         N  0.69838869  0.08797511  0.39448146     0.14600
C62         C  0.64276063  0.08429861  0.36815737    -0.29600
C63         C  0.60252685  0.26704185  0.45186907    -0.29900
N64         N  0.58619982  0.27573721  0.39672214     0.15100
H65         H  0.64447480  0.28209308  0.47130881     0.17700
C66         C  0.54318442  0.23861652  0.37920191    -0.29900
H67         H  0.53141561  0.22871714  0.33332909     0.17700
H68         H  0.62955000  0.05143811  0.33490274     0.17700
H69         H  0.53567285  0.13727137  0.60365897     0.17800
H70         H  0.72855667  0.13219256  0.47566597     0.17700
C71         C  0.82941835  0.25016551  0.08658894     0.88100
C72         C  0.78280113  0.27531924  0.04513449    -0.52100
C73         C  0.74583741  0.31592681  0.07323028     0.11000
C74         C  0.75946261  0.32768721  0.13893071     0.22000
C75         C  0.86290825  0.30169666  0.11731398    -0.52800
C76         C  0.82619817  0.34138585  0.14593528     0.11100
C77         C  0.79068174  0.23029741  0.13640838    -0.52400
C78         C  0.75458455  0.27131926  0.16329195     0.11700
H79         H  0.77826719  0.26088249  0.99887413     0.16200
H80         H  0.72988885  0.36035189  0.16176881     0.02000
H81         H  0.91126501  0.30261847  0.12330194     0.16500
H82         H  0.79425092  0.18889928  0.15125971     0.16300
C83         C  0.23856822  0.21111392  0.83939739     0.88100
C84         C  0.26399104  0.16956315  0.79085107    -0.52100
C85         C  0.30136522  0.19248571  0.75374663     0.11000
C86         C  0.31096152  0.25545906  0.76708962     0.22000
C87         C  0.29462731  0.24084280  0.86945652    -0.52800
C88         C  0.33184005  0.26502262  0.83086289     0.11100
C89         C  0.20916968  0.25784289  0.80603130    -0.52400
C90         C  0.24816048  0.28080674  0.76840161     0.11700
H91         H  0.25270874  0.12535442  0.78554667     0.16200
H92         H  0.34171412  0.27347789  0.73571208     0.02000
H93         H  0.30132414  0.24588942  0.91665483     0.16500
H94         H  0.16305662  0.27185287  0.81231683     0.16300
C95         C  0.88225337  0.57056738  0.50084535     0.31600
C96         C  0.86913486  0.49479510  0.40679252     0.31600
C97         C  0.87982960  0.59438329  0.44212723    -0.04600
C98         C  0.93240393  0.52611794  0.49336584    -0.05400
C99         C  0.82500877  0.53465245  0.50215721    -0.05200
C100        C  0.87306935  0.55571772  0.39407078    -0.04600
C101        C  0.92537819  0.48566515  0.44383730    -0.05300
C102        C  0.81846016  0.49364508  0.45299404    -0.05200
C103        C  0.87212040  0.58457633  0.34501951    -0.30600
N104        N  0.87817358  0.63973870  0.36291381     0.15900
C105        C  0.88290060  0.64650571  0.42219910    -0.30600
H106        H  0.88752459  0.68621019  0.44861221     0.17800
C107        C  0.94166635  0.43456842  0.46287265    -0.29600
N108        N  0.95669913  0.44236726  0.52003227     0.14600
C109        C  0.95305586  0.49716771  0.53842275    -0.29600
C110        C  0.80065377  0.44517869  0.47675477    -0.29900
N111        N  0.79716402  0.45450108  0.53588914     0.15100
H112        H  0.80560864  0.40366394  0.45402516     0.17700
C113        C  0.80876877  0.50893109  0.55112936    -0.29900
H114        H  0.82094184  0.52498086  0.59548965     0.17700
H115        H  0.95483096  0.51361564  0.58421849     0.17700
H116        H  0.86679589  0.56699659  0.29989732     0.17800
H117        H  0.93271281  0.39393557  0.43969970     0.17700
C118        C  0.83270320  0.90084266  0.10956043     0.88100
C119        C  0.80227156  0.85614920  0.06689759    -0.52100
C120        C  0.76605431  0.82111432  0.09376579     0.11000
C121        C  0.76263131  0.83346091  0.16063143     0.22000
C122        C  0.77992639  0.93093965  0.14487776    -0.52800
C123        C  0.74324136  0.89491496  0.17183719     0.11100
C124        C  0.86485621  0.86754275  0.15460367    -0.52400
C125        C  0.82801255  0.83242702  0.18092490     0.11700
H126        H  0.81000298  0.85172868  0.01979334     0.16200
H127        H  0.73328625  0.80410405  0.18199532     0.02000
H128        H  0.77309659  0.97589078  0.14889904     0.16500
H129        H  0.91262929  0.87062204  0.16388467     0.16300
C130        C  0.88110509  0.20405901  0.79048489     0.88100
C131        C  0.85135800  0.23883952  0.84175876    -0.52100
C132        C  0.81099841  0.27605679  0.82573063     0.11000
C133        C  0.80154805  0.27508387  0.75921304     0.22000
C134        C  0.82849792  0.17665152  0.75328533    -0.52800
C135        C  0.78721130  0.21448209  0.73628545     0.11100
C136        C  0.90692709  0.24717174  0.75104578    -0.52400
C137        C  0.86398221  0.28379404  0.73434944     0.11700
H138        H  0.86408488  0.23666680  0.88740341     0.16200
H139        H  0.76768188  0.30583037  0.74656927     0.02000
H140        H  0.82698533  0.13243562  0.73796834     0.16500
H141        H  0.95273856  0.24619606  0.73488317     0.16300
C142        C  0.48891264  0.92052549  0.49779066     0.31600
C143        C  0.53876915  0.91796041  0.38957016     0.31600
C144        C  0.44837673  0.93687399  0.44903158    -0.04600
C145        C  0.54414374  0.95947043  0.49427411    -0.05400
C146        C  0.51341742  0.86304656  0.47372726    -0.05200
C147        C  0.47331228  0.93499941  0.39355064    -0.04600
C148        C  0.56616007  0.96000826  0.43613885    -0.05300
C149        C  0.54311935  0.86242573  0.41861639    -0.05200
C150        C  0.43129574  0.95589793  0.35778876    -0.30600
N151        N  0.38199865  0.96997197  0.39074630     0.15900
C152        C  0.39170175  0.95838164  0.44639060    -0.30600
H153        H  0.35895863  0.96297815  0.48147213     0.17800
C154        C  0.62521900  0.97084588  0.43910695    -0.29600
N155        N  0.64382304  0.97329284  0.49471915     0.14600
C156        C  0.59589853  0.96524669  0.52951964    -0.29600
C157        C  0.59664942  0.83375757  0.42595021    -0.29900
N158        N  0.59918461  0.81658108  0.48038291     0.15100
H159        H  0.63619014  0.83802860  0.39934392     0.17700
C160        C  0.54749609  0.83124743  0.50791962    -0.29900
H161        H  0.54275320  0.83329993  0.55527419     0.17700
H162        H  0.59918216  0.95692698  0.57497258     0.17700
H163        H  0.43511115  0.95850026  0.31097275     0.17800
H164        H  0.65490385  0.96577466  0.40146114     0.17700
C165        C  0.17833517  0.85403871  0.11002373     0.88100
C166        C  0.19068540  0.89175600  0.16585036    -0.52100
C167        C  0.21397089  0.86502536  0.20948114     0.11000
C168        C  0.22466485  0.80233241  0.19441502     0.22000
C169        C  0.23886946  0.82420801  0.09370631    -0.52800
C170        C  0.26245679  0.79638237  0.13822248     0.11100
C171        C  0.13785915  0.80659812  0.13020464    -0.52400
C172        C  0.16324515  0.77974512  0.17465971     0.11700
H173        H  0.18087509  0.93637356  0.17103826     0.16200
H174        H  0.24455083  0.78123426  0.23099665     0.02000
H175        H  0.25883909  0.82247158  0.05032143     0.16500
H176        H  0.09406680  0.79576132  0.11169468     0.16300
C177        C  0.85139966  0.86034987  0.78463815     0.88100
C178        C  0.89005867  0.81155069  0.75441679    -0.52100
C179        C  0.85717573  0.77044559  0.72358193     0.11000
C180        C  0.78970918  0.78094825  0.72596965     0.22000
C181        C  0.81431401  0.88023705  0.73361210    -0.52800
C182        C  0.78257588  0.83812199  0.70304008     0.11100
C183        C  0.80557322  0.83121635  0.82237014    -0.52400
C184        C  0.77351541  0.78951140  0.79120216     0.11700
H185        H  0.93880635  0.81125974  0.75453282     0.16200
H186        H  0.76340174  0.74739094  0.70064693     0.02000
H187        H  0.81564786  0.92258962  0.72102802     0.16500
H188        H  0.79980459  0.84209069  0.86921929     0.16300
C189        C  0.51016351  0.48372525  0.06134447     0.31600
C190        C  0.44849495  0.57447206  0.11052665     0.31600
C191        C  0.53131476  0.53994494  0.04425104    -0.04600
C192        C  0.44093752  0.48418274  0.04718135    -0.05400
C193        C  0.51075845  0.49265072  0.12948376    -0.05200
C194        C  0.49919691  0.58597594  0.06870311    -0.04600
C195        C  0.41074095  0.53046227  0.07543969    -0.05300
C196        C  0.47745586  0.53956160  0.15547297    -0.05200
C197        C  0.53290700  0.63250860  0.06169963    -0.30600
N198        N  0.58392187  0.61599067  0.03308774     0.15900
C199        C  0.58438371  0.55951173  0.02307677    -0.30600
H200        H  0.62255293  0.53455137  0.00696540     0.17800
C201        C  0.35444172  0.53377075  0.05340147    -0.29600
N202        N  0.34899911  0.49578184  0.00654788     0.16700
C203        C  0.40176889  0.46574197  0.00132555    -0.29600
C204        C  0.44652462  0.52021822  0.20190397    -0.29900
N205        N  0.45942124  0.46568602  0.20519287     0.15100
H206        H  0.40627107  0.53999310  0.22064627     0.17700
C207        C  0.50040659  0.44978772  0.16375418    -0.29900
H208        H  0.50896639  0.40621241  0.14879619     0.17700
H209        H  0.41436431  0.43845427  0.96280843     0.17700
H210        H  0.52388663  0.67461642  0.08114043     0.17800
H211        H  0.32466327  0.56935230  0.06274594     0.17700
C212        C  0.57925148  0.58481051  0.83618230     0.31600
C213        C  0.51783224  0.48824618  0.83628734     0.31600
C214        C  0.61720717  0.53280725  0.84319489    -0.04600
C215        C  0.53124498  0.58528480  0.88484833    -0.05400
C216        C  0.54257475  0.56900291  0.78005767    -0.05200
C217        C  0.58497354  0.48276019  0.84206106    -0.04600
C218        C  0.50273052  0.53278598  0.88664477    -0.05300
C219        C  0.50808316  0.51937554  0.78109806    -0.05200
C220        C  0.61594352  0.44866635  0.87591135    -0.30600
N221        N  0.66582005  0.47516988  0.89638969     0.15900
C222        C  0.66728618  0.52658465  0.87770237    -0.30600
H223        H  0.70069545  0.55806099  0.89053483     0.17800
C224        C  0.44568281  0.54309242  0.90408887    -0.29600
N225        N  0.43433322  0.59806565  0.90891114     0.14600
C226        C  0.48542947  0.62491721  0.89680032    -0.29600
C227        C  0.45208597  0.53220292  0.75905605    -0.29900
N228        N  0.45180807  0.58520948  0.74425578     0.15100
H229        H  0.41142794  0.50938961  0.76670912     0.17700
C230        C  0.50681587  0.60683712  0.75470745    -0.29900
H231        H  0.51547258  0.65144243  0.75850918     0.17700
H232        H  0.48676090  0.66783030  0.88636111     0.17700
H233        H  0.60173297  0.40802819  0.88712984     0.17800
H234        H  0.41121436  0.51171684  0.89715003     0.17700
N235        N  0.10213112  0.14315795  0.05099361    -0.04500
N236        N  0.11629261  0.17774101  0.09837305    -0.56600
N237        N  0.15827715  0.11072082  0.91761857    -0.04200
N238        N  0.20877345  0.12698136  0.89371028    -0.58700
N239        N  0.11818952  0.15111980  0.91803173    -0.03800
N240        N  0.14023373  0.19448502  0.89346656    -0.56600
N241        N  0.13906401  0.09954215  0.04806155    -0.03400
N242        N  0.17695721  0.10347009  0.09286832    -0.59100
C243        C  0.16265934  0.15199567  0.12486603     0.97700
C244        C  0.19721382  0.17946836  0.87860290     0.97500
N245        N  0.09821773  0.93639711  0.88469352    -0.04700
N246        N  0.10990340  0.89872650  0.83975602    -0.57200
N247        N  0.13465147  0.96348491  0.02287689    -0.02800
N248        N  0.17675721  0.93967807  0.05304821    -0.58400
N249        N  0.08772077  0.93035731  0.01678903    -0.04700
N250        N  0.09672813  0.88423091  0.04268321    -0.57500
N251        N  0.14234642  0.97315021  0.89139326    -0.02400
N252        N  0.18454626  0.96057580  0.85138871    -0.58500
Mn253      Mn  0.14411929  0.03680689  0.96974549     1.18400
C254        C  0.16327188  0.91478846  0.81824124     0.99800
C255        C  0.15246769  0.89018352  0.06527900     1.00400
N256        N  0.97493444  0.14932328  0.89276161    -0.04700
N257        N  0.97131518  0.18336411  0.85061343    -0.61000
N258        N  0.90657176  0.12676490  0.01540479    -0.03500
N259        N  0.85587512  0.15172111  0.03509131    -0.61700
N260        N  0.95213748  0.16144856  0.02596533    -0.04200
N261        N  0.93262049  0.20967459  0.05295498    -0.61300
N262        N  0.93256201  0.11095301  0.88436178    -0.03100
N263        N  0.90079697  0.11830245  0.83714544    -0.62000
Mn264      Mn  0.03670711  0.15219045  0.97293107     1.10700
C265        C  0.92438992  0.16393607  0.81576883     1.01000
C266        C  0.87244045  0.20359757  0.05887242     1.01100
N267        N  0.94413269  0.94764351  0.01390580    -0.04200
N268        N  0.92780654  0.91323340  0.05261138    -0.59600
N269        N  0.91294474  0.97659983  0.87898619    -0.03600
N270        N  0.86937696  0.95730534  0.84245024    -0.56300
N271        N  0.95548917  0.93870603  0.87899408    -0.04900
N272        N  0.94253887  0.89423930  0.84262214    -0.59200
N273        N  0.90464351  0.98881610  0.01385047    -0.03900
N274        N  0.86098294  0.98246052  0.05198836    -0.56400
Mn275      Mn  0.02121532  0.93854245  0.94892927     1.20200
Mn276      Mn  0.91330806  0.05084900  0.94837448     1.10100
Cl277      Cl  0.02880162  0.04519106  0.96091359    -0.84300
C278        C  0.87649388  0.93570712  0.07725513     0.98000
C279        C  0.88921164  0.90603859  0.81885156     0.97800
C280        C  0.37409225  0.61446868  0.90611423    -0.16900
C281        C  0.32319516  0.59805203  0.90927062     0.07200
C282        C  0.29945837  0.54863847  0.92900875     0.09000
C283        C  0.31419856  0.51321426  0.96033714    -0.17700
C284        C  0.72893110  0.75401864  0.81562337    -0.16900
C285        C  0.69187585  0.71964822  0.82704132     0.07200
C286        C  0.64975212  0.67596393  0.83371730     0.09000
C287        C  0.61607584  0.63647132  0.83599119    -0.17700
C288        C  0.31157924  0.75586435  0.13174816    -0.16900
C289        C  0.34710586  0.71734088  0.13246775     0.07200
C290        C  0.38459789  0.66908910  0.13437540     0.09000
C291        C  0.41448625  0.62637941  0.13060253    -0.17700
C292        C  0.65194089  0.81629099  0.51385358    -0.16900
C293        C  0.69040495  0.82344111  0.55095053     0.07200
C294        C  0.72590838  0.83581325  0.60177655     0.09000
C295        C  0.75220321  0.84251975  0.64803733    -0.17700
C296        C  0.22627066  0.89548611  0.26447731    -0.16900
C297        C  0.24300425  0.92770138  0.30406600     0.07200
C298        C  0.27929596  0.96114329  0.34219909     0.09000
C299        C  0.32496694  0.97316773  0.36724918    -0.17700
C300        C  0.71329207  0.44660057  0.91905251    -0.16900
C301        C  0.74872525  0.40980597  0.92272063     0.07200
C302        C  0.77498479  0.35956232  0.89995704     0.09000
C303        C  0.79008506  0.31963810  0.86782202    -0.17700
C304        C  0.73647362  0.77382852  0.06295464    -0.16900
C305        C  0.70887952  0.73312111  0.04366694     0.07200
C306        C  0.67100146  0.68685610  0.03034021     0.09000
C307        C  0.63276961  0.65151507  0.02800983    -0.17700
C308        C  0.69210341  0.91084982  0.21061712    -0.16900
C309        C  0.65037357  0.91581711  0.24550067     0.07200
C310        C  0.60393055  0.91709673  0.28942159     0.09000
C311        C  0.56929206  0.91715985  0.33090074    -0.17700
C312        C  0.88952089  0.61331195  0.55192962    -0.16900
C313        C  0.89249589  0.64792333  0.59423634     0.07200
C314        C  0.89065475  0.68930474  0.64331735     0.09000
C315        C  0.88158008  0.72584021  0.68286339    -0.17700
C316        C  0.86933921  0.32023216  0.68808680    -0.16900
C317        C  0.85590941  0.34943477  0.64997618     0.07200
C318        C  0.83148290  0.38292766  0.60801923     0.09000
C319        C  0.81228009  0.41400338  0.57386608    -0.17700
C320        C  0.87569651  0.68297815  0.32619012    -0.16900
C321        C  0.87108733  0.71956877  0.29406854     0.07200
C322        C  0.86123268  0.76110916  0.25563987     0.09000
C323        C  0.84865702  0.79494039  0.22208071    -0.17700
C324        C  0.37883803  0.30676513  0.84621442    -0.16900
C325        C  0.41459843  0.34541240  0.84727560     0.07200
C326        C  0.45325915  0.39273308  0.84244790     0.09000
C327        C  0.48373500  0.43438467  0.83793658    -0.17700
C328        C  0.69310569  0.34275197  0.04803395    -0.16900
C329        C  0.64718774  0.36882248  0.03813606     0.07200
C330        C  0.59360669  0.40291445  0.03489823     0.09000
C331        C  0.55115159  0.43588406  0.03991374    -0.17700
C332        C  0.84588219  0.37712118  0.19767383    -0.16900
C333        C  0.85424599  0.40254487  0.24564359     0.07200
C334        C  0.85940964  0.43060578  0.30351103     0.09000
C335        C  0.86298092  0.45651337  0.35184352    -0.17700
C336        C  0.73971120  0.04441222  0.39971843    -0.16900
C337        C  0.76398964  0.01172134  0.42917234     0.07200
C338        C  0.75236980  0.98533638  0.48068191     0.09000
C339        C  0.70587153  0.97520431  0.50445291    -0.17700
C340        C  0.64136681  0.18973035  0.55160807    -0.16900
C341        C  0.67267071  0.19502939  0.59548994     0.07200
C342        C  0.71021854  0.19807169  0.64656302     0.09000
C343        C  0.74374069  0.20222648  0.68886071    -0.17700
C344        C  0.32735275  0.15964473  0.70468941    -0.16900
C345        C  0.35092867  0.13256301  0.66427231     0.07200
C346        C  0.38551508  0.10738655  0.61797278     0.09000
C347        C  0.42301696  0.09718465  0.58104944    -0.17700
C348        C  0.72301091  0.26793290  0.21733006    -0.16900
C349        C  0.69628341  0.27647411  0.26293427     0.07200
C350        C  0.66209249  0.28841463  0.31427930     0.09000
C351        C  0.62810459  0.28936275  0.35508636    -0.17700
C352        C  0.30157334  0.74909479  0.77216702    -0.16900
C353        C  0.32825162  0.70513556  0.76869700     0.07200
C354        C  0.36380832  0.65649699  0.75713798     0.09000
C355        C  0.40120457  0.62024891  0.74825634    -0.17700
C356        C  0.32959822  0.89639295  0.66440210    -0.16900
C357        C  0.37107536  0.90757412  0.63297483     0.07200
C358        C  0.41865888  0.91665302  0.59295887     0.09000
C359        C  0.45523116  0.92105198  0.55414830    -0.17700
C360        C  0.96751811  0.40134948  0.55808550    -0.16900
C361        C  0.99094334  0.37860402  0.59672315     0.07200
C362        C  0.04391775  0.38445277  0.62963600     0.09000
C363        C  0.08586100  0.41304098  0.61954926    -0.17700
C364        C  0.23659450  0.32738219  0.73404425    -0.16900
C365        C  0.24206408  0.36395407  0.70151377     0.07200
C366        C  0.25612096  0.40291058  0.66052903     0.09000
C367        C  0.26710616  0.43339121  0.62271909    -0.17700
C368        C  0.13770202  0.73415724  0.20352075    -0.16900
C369        C  0.13060333  0.69796219  0.23622220     0.07200
C370        C  0.13297771  0.65923365  0.27949895     0.09000
C371        C  0.14031539  0.62930880  0.31867278    -0.17700
C372        C  0.17383509  0.76303017  0.64909762    -0.16900
C373        C  0.16567588  0.71855791  0.62039746     0.07200
C374        C  0.16513885  0.66488302  0.58806587     0.09000
C375        C  0.16884581  0.61971802  0.55956306    -0.17700
C376        C  0.31153025  0.30215684  0.19588129    -0.16900
C377        C  0.34154303  0.34365630  0.20452168     0.07200
C378        C  0.37957473  0.38999512  0.21671272     0.09000
C379        C  0.41582602  0.42705002  0.21813892    -0.17700
C380        C  0.34195453  0.13997742  0.26828247    -0.16900
C381        C  0.38900744  0.12836178  0.29266634     0.07200
C382        C  0.44463938  0.12149036  0.32443198     0.09000
C383        C  0.48959640  0.12227069  0.35583871    -0.17700
C384        C  0.18727997  0.42069780  0.40650532    -0.16900
C385        C  0.18515267  0.37564254  0.37740688     0.07200
C386        C  0.18316742  0.32216584  0.34433904     0.09000
C387        C  0.18735939  0.27804984  0.31377776    -0.17700
loop_ 
_geom_bond_atom_site_label_1 
_geom_bond_atom_site_label_2 
_geom_bond_distance 
_geom_bond_site_symmetry_2 
_ccdc_geom_bond_type 
C1            C2   1.570       .  S
C1            C7   1.545       .  S
C1            C5   1.549       .  S
C1          C243   1.553       .  S
C2            H9   1.085       .  S
C2            C3   1.380       .  D
C3            C4   1.530       .  S
C3          C380   1.484       .  S
C4            C8   1.521       .  S
C4            C6   1.530       .  S
C4           H10   1.113       .  S
C5           H11   1.086       .  S
C5            C6   1.374       .  D
C6          C387   1.454       .  S
C7           H12   1.086       .  S
C7            C8   1.368       .  D
C8          C376   1.434       .  S
C13          C15   1.526       .  S
C13          C17   1.550       .  S
C13          C16   1.533       .  S
C13         C384   1.486       .  S
C14          C18   1.528       .  S
C14          C20   1.548       .  S
C14          C19   1.538       .  S
C14         C375   1.481       .  S
C15          C23   1.385       .  A
C15          C18   1.377       .  A
C16          C27   1.377       .  A
C16          C19   1.418       .  A
C17          C31   1.389       .  A
C17          C20   1.429       .  A
C18          C21   1.382       .  A
C19          C25   1.392       .  A
C20          C28   1.391       .  A
C21          N22   1.357       .  A
C21          H34   1.083       .  S
N22          C23   1.360       .  A
N22         C371   1.413       .  S
C23          H24   1.083       .  S
C25          N26   1.349       .  A
C25          H35   1.082       .  S
N26          C27   1.343       .  A
N26         C363   1.396       .  S
C27          H33   1.083       .  S
C28          N29   1.350       .  A
C28          H30   1.084       .  S
N29          C31   1.349       .  A
N29         C367   1.412       .  S
C31          H32   1.084       .  S
C36          C37   1.551       .  S
C36          C42   1.547       .  S
C36          C40   1.550       .  S
C36         C254   1.532       .  S
C37          H44   1.086       .  S
C37          C38   1.371       .  D
C38          C39   1.534       .  S
C38         C356   1.463       .  S
C39          C43   1.526       .  S
C39          C41   1.529       .  S
C39          H45   1.113       .  S
C40          H46   1.086       .  S
C40          C41   1.370       .  D
C41         C372   1.450       .  S
C42          H47   1.086       .  S
C42          C43   1.369       .  D
C43         C352   1.442       .  S
C48          C50   1.520       .  S
C48          C52   1.552       .  S
C48          C51   1.575       .  S
C48         C383   1.512       .  S
C49          C53   1.524       .  S
C49          C55   1.532       .  S
C49          C54   1.516       .  S
C49         C340   1.494       .  S
C50          C58   1.377       .  A
C50          C53   1.388       .  A
C51          C62   1.402       .  A
C51          C54   1.400       .  A
C52          C66   1.377       .  A
C52          C55   1.426       .  A
C53          C56   1.369       .  A
C54          C60   1.353       .  A
C55          C63   1.387       .  A
C56          N57   1.351       .  A
C56          H69   1.083       .  S
N57          C58   1.353       .  A
N57         C347   1.392       .  S
C58          H59   1.082       .  S
C60          N61   1.344       .  A
C60          H70   1.086       .  S
N61          C62   1.377       .  A
N61         C336   1.406       .  S
C62          H68   1.082       .  S
C63          N64   1.350       .  A
C63          H65   1.082       .  S
N64          C66   1.345       .  A
N64         C351   1.398       .  S
C66          H67   1.085       .  S
C71          C72   1.566       .  S
C71          C77   1.545       .  S
C71          C75   1.554       .  S
C71         C266   1.558       .  S
C72          H79   1.086   1_554  S
C72          C73   1.384       .  D
C73          C74   1.533       .  S
C73         C328   1.482       .  S
C74          C78   1.520       .  S
C74          C76   1.529       .  S
C74          H80   1.113       .  S
C75          H81   1.086       .  S
C75          C76   1.371       .  D
C76         C332   1.460       .  S
C77          H82   1.086       .  S
C77          C78   1.368       .  D
C78         C348   1.433       .  S
C83          C84   1.526       .  S
C83          C89   1.562       .  S
C83          C87   1.565       .  S
C83         C244   1.542       .  S
C84          H91   1.087       .  S
C84          C85   1.348       .  D
C85          C86   1.529       .  S
C85         C344   1.429       .  S
C86          C90   1.523       .  S
C86          C88   1.527       .  S
C86          H92   1.113       .  S
C87          H93   1.085       .  S
C87          C88   1.383       .  D
C88         C324   1.470       .  S
C89          H94   1.085       .  S
C89          C90   1.379       .  D
C90         C364   1.453       .  S
C95          C97   1.514       .  S
C95          C99   1.544       .  S
C95          C98   1.541       .  S
C95         C312   1.486       .  S
C96         C100   1.524       .  S
C96         C102   1.550       .  S
C96         C101   1.540       .  S
C96         C335   1.489       .  S
C97         C105   1.377       .  A
C97         C100   1.376       .  A
C98         C109   1.379       .  A
C98         C101   1.427       .  A
C99         C113   1.383       .  A
C99         C102   1.427       .  A
C100        C103   1.378       .  A
C101        C107   1.391       .  A
C102        C110   1.393       .  A
C103        N104   1.355       .  A
C103        H116   1.083       .  S
N104        C105   1.355       .  A
N104        C320   1.402       .  S
C105        H106   1.082       .  S
C107        N108   1.345       .  A
C107        H117   1.083       .  S
N108        C109   1.344       .  A
N108        C360   1.400       .  S
C109        H115   1.084       .  S
C110        N111   1.352       .  A
C110        H112   1.083       .  S
N111        C113   1.345       .  A
N111        C319   1.408       .  S
C113        H114   1.084       .  S
C118        C119   1.536       .  S
C118        C124   1.542       .  S
C118        C122   1.562       .  S
C118        C278   1.527       .  S
C119        H126   1.087       .  S
C119        C120   1.359       .  D
C120        C121   1.532       .  S
C120        C304   1.437       .  S
C121        C125   1.529       .  S
C121        C123   1.534       .  S
C121        H127   1.112       .  S
C122        H128   1.085       .  S
C122        C123   1.383       .  D
C123        C308   1.471       .  S
C124        H129   1.086       .  S
C124        C125   1.363       .  D
C125        C323   1.441       .  S
C130        C131   1.522       .  S
C130        C136   1.553       .  S
C130        C134   1.557       .  S
C130        C265   1.516       .  S
C131        H138   1.089       .  S
C131        C132   1.343       .  D
C132        C133   1.535       .  S
C132        C303   1.428       .  S
C133        C137   1.527       .  S
C133        C135   1.532       .  S
C133        H139   1.113       .  S
C134        H140   1.086       .  S
C134        C135   1.374       .  D
C135        C343   1.462       .  S
C136        H141   1.086       .  S
C136        C137   1.377       .  D
C137        C316   1.446       .  S
C142        C144   1.516       .  S
C142        C146   1.534       .  S
C142        C145   1.556       .  S
C142        C359   1.492       .  S
C143        C147   1.514       .  S
C143        C149   1.552       .  S
C143        C148   1.522       .  S
C143        C311   1.505       .  S
C144        C152   1.367       .  A
C144        C147   1.384       .  A
C145        C156   1.406       .  A
C145        C148   1.420       .  A
C146        C160   1.374       .  A
C146        C149   1.424       .  A
C147        C150   1.370       .  A
C148        C154   1.343       .  A
C149        C157   1.394       .  A
C150        N151   1.356       .  A
C150        H163   1.083       .  S
N151        C152   1.348       .  A
N151        C299   1.384       .  S
C152        H153   1.083       .  S
C154        N155   1.334       .  A
C154        H164   1.084       .  S
N155        C156   1.359       .  A
N155        C339   1.400       .  S
C156        H162   1.081       .  S
C157        N158   1.353       .  A
C157        H159   1.083       .  S
N158        C160   1.343       .  A
N158        C292   1.403       .  S
C160        H161   1.086       .  S
C165        C166   1.516       .  S
C165        C171   1.562       .  S
C165        C169   1.554       .  S
C165        C255   1.520       .  S
C166        H173   1.088       .  S
C166        C167   1.343       .  D
C167        C168   1.530       .  S
C167        C296   1.418       .  S
C168        C172   1.525       .  S
C168        C170   1.533       .  S
C168        H174   1.112       .  S
C169        H175   1.086       .  S
C169        C170   1.377       .  D
C170        C288   1.460       .  S
C171        H176   1.085       .  S
C171        C172   1.378       .  D
C172        C368   1.453       .  S
C177        C178   1.558       .  S
C177        C183   1.551       .  S
C177        C181   1.544       .  S
C177        C279   1.536       .  S
C178        H185   1.086       .  S
C178        C179   1.369       .  D
C179        C180   1.524       .  S
C179        C315   1.453       .  S
C180        C184   1.530       .  S
C180        C182   1.527       .  S
C180        H186   1.113       .  S
C181        H187   1.086       .  S
C181        C182   1.370       .  D
C182        C295   1.442       .  S
C183        H188   1.086       .  S
C183        C184   1.373       .  D
C184        C284   1.459       .  S
C189        C191   1.520       .  S
C189        C193   1.553       .  S
C189        C192   1.576       .  S
C189        C331   1.509       .  S
C190        C194   1.526       .  S
C190        C196   1.532       .  S
C190        C195   1.518       .  S
C190        C291   1.490       .  S
C191        C199   1.380       .  A
C191        C194   1.386       .  A
C192        C203   1.403       .  A
C192        C195   1.400       .  A
C193        C207   1.376       .  A
C193        C196   1.427       .  A
C194        C197   1.372       .  A
C195        C201   1.357       .  A
C196        C204   1.387       .  A
C197        N198   1.351       .  A
C197        H210   1.082       .  S
N198        C199   1.354       .  A
N198        C307   1.398       .  S
C199        H200   1.083       .  S
C201        N202   1.343       .  A
C201        H211   1.085       .  S
N202        C203   1.377       .  A
N202        C283   1.407   1_554  S
C203        H209   1.082   1_554  S
C204        N205   1.350       .  A
C204        H206   1.082       .  S
N205        C207   1.344       .  A
N205        C379   1.398       .  S
C207        H208   1.085       .  S
C212        C214   1.528       .  S
C212        C216   1.538       .  S
C212        C215   1.545       .  S
C212        C287   1.491       .  S
C213        C217   1.508       .  S
C213        C219   1.546       .  S
C213        C218   1.530       .  S
C213        C327   1.507       .  S
C214        C222   1.383       .  A
C214        C217   1.401       .  A
C215        C226   1.402       .  A
C215        C218   1.419       .  A
C216        C230   1.378       .  A
C216        C219   1.423       .  A
C217        C220   1.368       .  A
C218        C224   1.348       .  A
C219        C227   1.391       .  A
C220        N221   1.343       .  A
C220        H233   1.083       .  S
N221        C222   1.348       .  A
N221        C300   1.387       .  S
C222        H223   1.082       .  S
C224        N225   1.338       .  A
C224        H234   1.078       .  S
N225        C226   1.353       .  A
N225        C280   1.401       .  S
C226        H232   1.082       .  S
C227        N228   1.351       .  A
C227        H229   1.084       .  S
N228        C230   1.345       .  A
N228        C355   1.403       .  S
C230        H231   1.085       .  S
N235        N236   1.337       .  A
N235        N241   1.327       .  A
N235       Mn264   2.331   1_554  S
N236        C243   1.374       .  A
N237        N239   1.316       .  A
N237        N238   1.329       .  A
N237       Mn253   2.260       .  S
N238        C244   1.365       .  A
N239        N240   1.329       .  A
N239       Mn264   2.208       .  S
N240        C244   1.353       .  A
N241        N242   1.324       .  A
N241       Mn253   2.227   1_554  S
N242        C243   1.351       .  A
N245        N251   1.322       .  A
N245        N246   1.326       .  A
N245       Mn275   2.258       .  S
N246        C254   1.359       .  A
N247        N248   1.326       .  A
N247        N249   1.315       .  A
N247       Mn253   2.250   1_564  S
N248        C255   1.363       .  A
N249        N250   1.323       .  A
N249       Mn275   2.168   1_554  S
N250        C255   1.347       .  A
N251        N252   1.326       .  A
N251       Mn253   2.238   1_565  S
N252        C254   1.359       .  A
Mn253      Cl277   2.586       .  S
N256        N257   1.328       .  A
N256        N262   1.322       .  A
N256       Mn264   2.288   1_655  S
N257        C265   1.369       .  A
N258        N260   1.322       .  A
N258        N259   1.335       .  A
N258       Mn276   2.268   1_554  S
N259        C266   1.361       .  A
N260        N261   1.330       .  A
N260       Mn264   2.241   1_654  S
N261        C266   1.358       .  A
N262        N263   1.318       .  A
N262       Mn276   2.202       .  S
N263        C265   1.353       .  A
Mn264      Cl277   2.565       .  S
N267        N268   1.323       .  A
N267        N273   1.322       .  A
N267       Mn275   2.269   1_654  S
N268        C278   1.362       .  A
N269        N270   1.334       .  A
N269        N271   1.312       .  A
N269       Mn276   2.267   1_565  S
N270        C279   1.367       .  A
N271        N272   1.320       .  A
N271       Mn275   2.169   1_655  S
N272        C279   1.347       .  A
N273        N274   1.327       .  A
N273       Mn276   2.226   1_564  S
N274        C278   1.358       .  A
Mn275      Cl277   2.556   1_565  S
Mn276      Cl277   2.594   1_655  S
C280        C281   1.207       .  T
C281        C282   1.416       .  S
C282        C283   1.211       .  T
C284        C285   1.217       .  T
C285        C286   1.430       .  S
C286        C287   1.217       .  T
C288        C289   1.218       .  T
C289        C290   1.431       .  S
C290        C291   1.218       .  T
C292        C293   1.206       .  T
C293        C294   1.414       .  S
C294        C295   1.207       .  T
C296        C297   1.192       .  T
C297        C298   1.387       .  S
C298        C299   1.190       .  T
C300        C301   1.193       .  T
C301        C302   1.394       .  S
C302        C303   1.197       .  T
C304        C305   1.203       .  T
C305        C306   1.407       .  S
C306        C307   1.202       .  T
C308        C309   1.224       .  T
C309        C310   1.442       .  S
C310        C311   1.224       .  T
C312        C313   1.214       .  T
C313        C314   1.424       .  S
C314        C315   1.213       .  T
C316        C317   1.210       .  T
C317        C318   1.420       .  S
C318        C319   1.211       .  T
C320        C321   1.206       .  T
C321        C322   1.412       .  S
C322        C323   1.205       .  T
C324        C325   1.224       .  T
C325        C326   1.442       .  S
C326        C327   1.224       .  T
C328        C329   1.231       .  T
C329        C330   1.452       .  S
C330        C331   1.230       .  T
C332        C333   1.216       .  T
C333        C334   1.430       .  S
C334        C335   1.217       .  T
C336        C337   1.211       .  T
C337        C338   1.418   1_545  S
C338        C339   1.208       .  T
C340        C341   1.219       .  T
C341        C342   1.433       .  S
C342        C343   1.219       .  T
C344        C345   1.198       .  T
C345        C346   1.398       .  S
C346        C347   1.197       .  T
C348        C349   1.202       .  T
C349        C350   1.406       .  S
C350        C351   1.202       .  T
C352        C353   1.206       .  T
C353        C354   1.413       .  S
C354        C355   1.206       .  T
C356        C357   1.219       .  T
C357        C358   1.434       .  S
C358        C359   1.219       .  T
C360        C361   1.203       .  T
C361        C362   1.399   1_655  S
C362        C363   1.198       .  T
C364        C365   1.214       .  T
C365        C366   1.426       .  S
C366        C367   1.214       .  T
C368        C369   1.214       .  T
C369        C370   1.427       .  S
C370        C371   1.215       .  T
C372        C373   1.211       .  T
C373        C374   1.421       .  S
C374        C375   1.212       .  T
C376        C377   1.202       .  T
C377        C378   1.407       .  S
C378        C379   1.202       .  T
C380        C381   1.231       .  T
C381        C382   1.454       .  S
C382        C383   1.231       .  T
C384        C385   1.214       .  T
C385        C386   1.425       .  S
C386        C387   1.214       .  T
