geometry optimzed in LAMMPS
_audit_creation_date              2020-12-01 
_audit_creation_method            'lammps2cif' 
_symmetry_space_group_name_H-M    'P1' 
_symmetry_Int_Tables_number       1 
_symmetry_cell_setting            triclinic 
loop_ 
_symmetry_equiv_pos_as_xyz 
  x,y,z 
_cell_length_a                    42.53627805 
_cell_length_b                    42.782730998509855 
_cell_length_c                    57.296578173037666 
_cell_angle_alpha                 90.93518233604205 
_cell_angle_beta                  89.62856913585374 
_cell_angle_gamma                 120.6529430156929 
loop_ 
_atom_site_label 
_atom_site_type_symbol 
_atom_site_fract_x 
_atom_site_fract_y 
_atom_site_fract_z 
_atom_site_charge 
O1          O  0.12666947  0.34986953  0.27785357    -0.82200
C2          C  0.24844483  0.37922213  0.22064529     0.97200
O3          O  0.24177208  0.40123159  0.23124714    -0.71300
O4          O  0.17949364  0.39730247  0.22047121    -0.74900
Al5        Al  0.20239539  0.39735901  0.24917681     1.49000
C6          C  0.14532770  0.38217509  0.21765397     0.92500
O7          O  0.12544674  0.29566085  0.22385350    -0.81100
O8          O  0.17858098  0.30100109  0.28068990    -0.74600
Al9        Al  0.12906859  0.32436055  0.25078810     1.90100
O10         O  0.16792559  0.28394858  0.23406013    -0.73700
O11         O  0.24072701  0.36038666  0.27073013    -0.73600
O12         O  0.22881222  0.34547917  0.22409219    -0.79200
O13         O  0.22870646  0.40376365  0.27766673    -0.77400
O14         O  0.17781072  0.34881366  0.25072258    -1.13600
O15         O  0.16843210  0.40441435  0.26684287    -0.72800
C16         C  0.14128000  0.38399221  0.27931361     0.98000
C17         C  0.14007343  0.27636620  0.22207829     0.94400
Al18       Al  0.20190132  0.32483468  0.25226620     1.55600
O19         O  0.12386632  0.35613343  0.23044249    -0.77400
C20         C  0.24769508  0.38927179  0.28135841     0.98500
C21         C  0.14439654  0.28149809  0.28315885     0.93400
O22         O  0.12319807  0.28692931  0.27090592    -0.82700
C23         C  0.01226562  0.51199234  0.08818866     0.86100
C24         C  0.03471136  0.49597582  0.09786439    -0.54100
C25         C  0.03510876  0.49487851  0.12165013     0.09100
C26         C  0.01378312  0.51064606  0.13377735     0.20000
C27         C  0.47442495  0.48964974  0.09961472    -0.54800
C28         C  0.47526538  0.48916138  0.12340238     0.09200
C29         C  0.02917840  0.04993631  0.10015969    -0.54400
C30         C  0.03010486  0.04912346  0.12396300     0.09700
H31         H  0.04791944  0.48515036  0.08685022     0.14200
H32         H  0.01450061  0.01004679  0.15314852     0.00000
H33         H  0.44906355  0.47622848  0.08973160     0.14500
H34         H  0.04019850  0.07543693  0.09128361     0.14300
C35         C  0.51312890  0.01757637  0.41309703     0.86100
C36         C  0.03460301  0.05620702  0.40288962    -0.54100
C37         C  0.03378077  0.05667042  0.37902884     0.09100
C38         C  0.51217916  0.01859803  0.36760877     0.20000
C39         C  0.47472351  0.50086797  0.40256823    -0.54800
C40         C  0.47426308  0.50144360  0.37883635     0.09200
C41         C  0.03052334  0.49775572  0.40111500    -0.54400
C42         C  0.02981972  0.49786641  0.37732908     0.09700
H43         H  0.04888531  0.08110052  0.41308848     0.14200
H44         H  0.51128216  0.01870839  0.34826034     0.00000
H45         H  0.44994730  0.48896630  0.41298039     0.14500
H46         H  0.04296068  0.48521209  0.41080378     0.14300
O47         O  0.37791863  0.15365717  0.77509898    -0.82200
C48         C  0.25134202  0.11756285  0.72084774     0.97200
O49         O  0.25790161  0.09643656  0.73221975    -0.71300
O50         O  0.31908652  0.09772218  0.72089739    -0.74900
Al51       Al  0.29872709  0.10233950  0.74975350     1.49000
C52         C  0.35297592  0.11235743  0.71721283     0.92500
O53         O  0.37305544  0.20029260  0.72004336    -0.81100
O54         O  0.32480717  0.20157216  0.77835472    -0.74600
Al55       Al  0.37224469  0.17541472  0.74773316     1.90100
O56         O  0.33229066  0.21395245  0.73150599    -0.73700
O57         O  0.26178497  0.14212754  0.77033172    -0.73600
O58         O  0.27142806  0.15159729  0.72339360    -0.79200
O59         O  0.27490050  0.10032094  0.77868271    -0.77400
O60         O  0.32357020  0.15092908  0.74941313    -1.13600
O61         O  0.33443774  0.09778661  0.76719689    -0.72800
C62         C  0.36364242  0.11983849  0.77778698     0.98000
C63         C  0.35850686  0.21956097  0.71841685     0.94400
Al64       Al  0.29968699  0.17517253  0.75077529     1.55600
O65         O  0.37536376  0.14094248  0.72816950    -0.77400
C66         C  0.25614668  0.11525156  0.78220034     0.98500
C67         C  0.35911494  0.22108772  0.78029462     0.93400
O68         O  0.37969837  0.21531856  0.76721602    -0.82700
C69         C  0.99002305  0.48858777  0.91181176     0.86100
C70         C  0.46772753  0.44997032  0.90079940    -0.54100
C71         C  0.46891531  0.44930800  0.87702267     0.09100
C72         C  0.99128629  0.48718485  0.86617220     0.20000
C73         C  0.02822843  0.00454238  0.90137731    -0.54800
C74         C  0.02877464  0.00396809  0.87762468     0.09200
C75         C  0.47382756  0.00964765  0.90021475    -0.54400
C76         C  0.47447470  0.00895731  0.87628253     0.09700
H77         H  0.45250601  0.42498568  0.91036460     0.14200
H78         H  0.99236632  0.48669921  0.84680116     0.00000
H79         H  0.05298543  0.01623895  0.91185234     0.14500
H80         H  0.46251435  0.02349570  0.91008819     0.14300
C81         C  0.98862222  0.98147919  0.58729427     0.86100
C82         C  0.46443096  0.99558354  0.59759804    -0.54100
C83         C  0.46308967  0.99541266  0.62137536     0.09100
C84         C  0.98528706  0.48049126  0.63275720     0.20000
C85         C  0.02590642  0.00441502  0.59943482    -0.54800
C86         C  0.02426467  0.00384668  0.62316236     0.09200
C87         C  0.47263460  0.44317926  0.59764080    -0.54400
C88         C  0.47073305  0.44279718  0.62145788     0.09700
H89         H  0.45091084  0.00617394  0.58705549     0.14200
H90         H  0.98414169  0.48031693  0.65213542     0.00000
H91         H  0.05153998  0.01914987  0.59000872     0.14500
H92         H  0.46215709  0.41820752  0.58762394     0.14300
C93         C  0.46559395  0.33781676  0.80539804    -0.18200
C94         C  0.48059312  0.37044882  0.81816740    -0.20400
C95         C  0.45918568  0.37643969  0.83429275     0.20300
C96         C  0.42247844  0.34896478  0.83793912    -0.03300
C97         C  0.40719543  0.31619136  0.82481728    -0.06300
C98         C  0.42884572  0.31075797  0.80839042     0.20600
C99         C  0.37011901  0.28922575  0.82780240     0.18700
C100        C  0.34903912  0.29482210  0.84444702    -0.17800
C101        C  0.36435354  0.32704775  0.85774239    -0.20000
C102        C  0.40090663  0.35442448  0.85445526     0.20200
C103        C  0.41621778  0.38725602  0.86723398    -0.33100
C104        C  0.45248425  0.41497110  0.86325552     0.00900
C105        C  0.47378622  0.40944350  0.84676605    -0.24400
C106        C  0.41317531  0.27881259  0.79477935    -0.29000
C107        C  0.37584800  0.25240738  0.79689753     0.06600
C108        C  0.35460458  0.25758096  0.81372692    -0.27600
H109        H  0.48259747  0.33398302  0.79289172     0.11300
H110        H  0.00907652  0.39101722  0.81542611     0.12400
H111        H  0.32060682  0.27438545  0.84705989     0.11500
H112        H  0.34743958  0.33075937  0.87039334     0.10800
H113        H  0.39983165  0.39154743  0.88001739     0.16100
H114        H  0.00213847  0.43057943  0.84406884     0.12100
H115        H  0.42984170  0.27521115  0.78186138     0.14900
H116        H  0.32591006  0.23734237  0.81557941     0.14700
C117        C  0.11812175  0.10171932  0.82785186    -0.18200
C118        C  0.15093476  0.11813571  0.81544710    -0.20400
C119        C  0.17252926  0.10198222  0.81437021     0.20300
C120        C  0.16135102  0.06927914  0.82610227    -0.03300
C121        C  0.12843636  0.05292630  0.83887405    -0.06300
C122        C  0.10659811  0.06910925  0.83955092     0.20600
C123        C  0.11725227  0.02029859  0.85081318     0.18700
C124        C  0.13890900  0.00421127  0.84967521    -0.17800
C125        C  0.17130273  0.02017565  0.83670387    -0.20000
C126        C  0.18277066  0.05267008  0.82481301     0.20200
C127        C  0.21475277  0.06840845  0.81122764    -0.33100
C128        C  0.22553848  0.10060506  0.79906168     0.00900
C129        C  0.20463709  0.11757734  0.80124117    -0.24400
C130        C  0.07366631  0.05240545  0.85194914    -0.29000
C131        C  0.06286363  0.02037714  0.86413061     0.06600
C132        C  0.08460539  0.00439300  0.86362615    -0.27600
H133        H  0.10172571  0.11452337  0.82827972     0.11300
H134        H  0.15921638  0.14324542  0.80646528     0.12400
H135        H  0.13065948  0.97913212  0.85869406     0.11500
H136        H  0.18733686  0.00701504  0.83590791     0.10800
H137        H  0.23060145  0.05510783  0.80961538     0.16100
H138        H  0.21259549  0.14243338  0.79200341     0.12100
H139        H  0.05665137  0.06456239  0.85249984     0.14900
H140        H  0.07584559  0.97947370  0.87300868     0.14700
C141        C  0.38957902  0.02215097  0.79313660    -0.18200
C142        C  0.40528880  0.00677532  0.80671368    -0.20400
C143        C  0.42565110  0.02500594  0.82673390     0.20300
C144        C  0.43099066  0.05949797  0.83281928    -0.03300
C145        C  0.41545097  0.07524346  0.81892676    -0.06300
C146        C  0.39412696  0.05611856  0.79925564     0.20600
C147        C  0.42079484  0.10980513  0.82489704     0.18700
C148        C  0.44199956  0.12840247  0.84459889    -0.17800
C149        C  0.45698081  0.11257933  0.85855091    -0.20000
C150        C  0.45135082  0.07798838  0.85295904     0.20200
C151        C  0.46540359  0.06140852  0.86720423    -0.33100
C152        C  0.45983472  0.02682828  0.86133398     0.00900
C153        C  0.44030708  0.00907937  0.84090921    -0.24400
C154        C  0.37732767  0.07103422  0.78619612    -0.29000
C155        C  0.38192018  0.10516752  0.79218337     0.06600
C156        C  0.40440459  0.12482562  0.81126933    -0.27600
H157        H  0.37354727  0.00727768  0.77793692     0.11300
H158        H  0.40131637  0.48047594  0.80159743     0.12400
H159        H  0.44656869  0.15499234  0.84942323     0.11500
H160        H  0.47278272  0.12732542  0.87383617     0.10800
H161        H  0.98058893  0.07533073  0.88279438     0.16100
H162        H  0.43566410  0.48237915  0.83632288     0.12100
H163        H  0.36078373  0.05609925  0.77115877     0.14900
H164        H  0.40836778  0.15128829  0.81582253     0.14700
C165        C  0.43477465  0.28904024  0.65101108    -0.18200
C166        C  0.45057303  0.32045497  0.63751774    -0.20400
C167        C  0.44360007  0.34859310  0.64253783     0.20300
C168        C  0.42002434  0.34480997  0.66111549    -0.03300
C169        C  0.40372858  0.31295114  0.67450777    -0.06300
C170        C  0.41149782  0.28509026  0.66964533     0.20600
C171        C  0.38007914  0.30925275  0.69297556     0.18700
C172        C  0.37276445  0.33716564  0.69789210    -0.17800
C173        C  0.38919363  0.36885964  0.68479483    -0.20000
C174        C  0.41298892  0.37300828  0.66648188     0.20200
C175        C  0.42994984  0.40492537  0.65350948    -0.33100
C176        C  0.45347003  0.40891248  0.63502896     0.00900
C177        C  0.45996956  0.38055788  0.62946620    -0.24400
C178        C  0.39631218  0.25411864  0.68372993    -0.29000
C179        C  0.37302566  0.25054900  0.70231950     0.06600
C180        C  0.36464981  0.27801891  0.70652813    -0.27600
H181        H  0.44092883  0.26791160  0.64694616     0.11300
H182        H  0.96796670  0.32264629  0.62304117     0.12400
H183        H  0.35462777  0.33464858  0.71204943     0.11500
H184        H  0.38341525  0.39019465  0.68905264     0.10800
H185        H  0.42437068  0.42647415  0.65755297     0.16100
H186        H  0.97784102  0.38351472  0.61509922     0.12100
H187        H  0.40276115  0.23300938  0.68035129     0.14900
H188        H  0.34693512  0.27569224  0.72092484     0.14700
C189        C  0.17477780  0.12766740  0.65947610    -0.18200
C190        C  0.14286450  0.11171916  0.64588841    -0.20400
C191        C  0.11607596  0.07496337  0.64857291     0.20300
C192        C  0.12147217  0.05412483  0.66517988    -0.03300
C193        C  0.15392288  0.07004530  0.67858137    -0.06300
C194        C  0.18068999  0.10705523  0.67581609     0.20600
C195        C  0.15952708  0.04885633  0.69474570     0.18700
C196        C  0.13265597  0.01222355  0.69762267    -0.17800
C197        C  0.10035716  0.99660588  0.68459979    -0.20000
C198        C  0.09452419  0.01727421  0.66833800     0.20200
C199        C  0.06238786  0.00158384  0.65501343    -0.33100
C200        C  0.05725784  0.02186230  0.63808560     0.00900
C201        C  0.08412608  0.05853265  0.63488346    -0.24400
C202        C  0.21275290  0.12270707  0.68947431    -0.29000
C203        C  0.21856217  0.10155901  0.70553524     0.06600
C204        C  0.19178631  0.06461583  0.70789488    -0.27600
H205        H  0.19494470  0.15609766  0.65710361     0.11300
H206        H  0.13912268  0.12815911  0.63328738     0.12400
H207        H  0.13658084  0.99564259  0.71001770     0.11500
H208        H  0.07991639  0.46823486  0.68715050     0.10800
H209        H  0.04169390  0.47316831  0.65726764     0.16100
H210        H  0.07999558  0.07418289  0.62184803     0.12100
H211        H  0.23313131  0.15119800  0.68757890     0.14900
H212        H  0.19566714  0.04810697  0.72038883     0.14700
C213        C  0.35600730  0.00785919  0.64117089    -0.18200
C214        C  0.34040024  0.02412835  0.65466852    -0.20400
C215        C  0.36134125  0.05105906  0.67145755     0.20300
C216        C  0.39833417  0.06139644  0.67472248    -0.03300
C217        C  0.41386132  0.04459414  0.66144238    -0.06300
C218        C  0.39273304  0.01791222  0.64440762     0.20600
C219        C  0.45063216  0.05459734  0.66523967     0.18700
C220        C  0.47164092  0.08139864  0.68195837    -0.17800
C221        C  0.45644050  0.09833402  0.69485187    -0.20000
C222        C  0.41992015  0.08851241  0.69133883     0.20200
C223        C  0.40470801  0.10530485  0.70436948    -0.33100
C224        C  0.36786568  0.09517557  0.70154614     0.00900
C225        C  0.34612405  0.06778455  0.68512063    -0.24400
C226        C  0.40883659  0.00189128  0.63101522    -0.29000
C227        C  0.44536688  0.01168456  0.63504989     0.06600
C228        C  0.46590890  0.03776742  0.65222608    -0.27600
H229        H  0.33931679  0.98732584  0.62825366     0.11300
H230        H  0.31197116  0.01575508  0.65189247     0.12400
H231        H  0.49990461  0.08936310  0.68500935     0.11500
H232        H  0.47323694  0.11906323  0.70764763     0.10800
H233        H  0.42160236  0.12585109  0.71725688     0.16100
H234        H  0.31762078  0.05961807  0.68296968     0.12100
H235        H  0.39298718  0.98154803  0.61776641     0.14900
H236        H  0.49418262  0.04552078  0.65510714     0.14700
C237        C  0.02567518  0.06140463  0.51887636    -0.18200
C238        C  0.02980013  0.06705533  0.49483395    -0.20400
C239        C  0.01952203  0.03771469  0.47929584     0.20300
C240        C  0.00529203  0.00241063  0.48809634    -0.03300
C241        C  0.00137480  0.99675062  0.51236453    -0.06300
C242        C  0.01135552  0.02636581  0.52775547     0.20600
C243        C  0.48711568  0.46152818  0.52117334     0.18700
C244        C  0.47716719  0.43223365  0.50562854    -0.17800
C245        C  0.48059115  0.43779346  0.48154882    -0.20000
C246        C  0.49435262  0.47277036  0.47266028     0.20200
C247        C  0.49700617  0.47846065  0.44859057    -0.33100
C248        C  0.51160115  0.01354853  0.43949375     0.00900
C249        C  0.02281456  0.04311317  0.45513276    -0.24400
C250        C  0.00666917  0.02046136  0.55176534    -0.29000
C251        C  0.99229583  0.98538803  0.56089843     0.06600
C252        C  0.48280746  0.45602390  0.54532492    -0.27600
H253        H  0.03355418  0.08445209  0.53053349     0.11300
H254        H  0.04077199  0.09433326  0.48838764     0.12400
H255        H  0.46635842  0.40498011  0.51207318     0.11500
H256        H  0.47232920  0.41469955  0.46986942     0.10800
H257        H  0.48760721  0.45533060  0.43676759     0.16100
H258        H  0.03294320  0.07021859  0.44889123     0.12100
H259        H  0.01431929  0.04334701  0.56355170     0.14900
H260        H  0.47215067  0.42884720  0.55150787     0.14700
C261        C  0.47711235  0.93747615  0.01531498    -0.18200
C262        C  0.47361571  0.93378378  0.99102633    -0.20400
C263        C  0.48446309  0.96431823  0.97708273     0.20300
C264        C  0.99927840  0.49895806  0.98772850    -0.03300
C265        C  0.00292508  0.50268455  0.01228033    -0.06300
C266        C  0.49168368  0.97178616  0.02608799     0.20600
C267        C  0.01782946  0.53726829  0.02295389     0.18700
C268        C  0.02915506  0.56788814  0.00898183    -0.17800
C269        C  0.02571860  0.56420581  0.98465444    -0.20000
C270        C  0.01073627  0.52984670  0.97385426     0.20200
C271        C  0.00713950  0.52586548  0.94945580    -0.33100
C272        C  0.99164702  0.49131825  0.93853335     0.00900
C273        C  0.48094302  0.96072175  0.95271896    -0.24400
C274        C  0.49516937  0.97568507  0.05044174    -0.29000
C275        C  0.00987360  0.51000706  0.06148637     0.06600
C276        C  0.02118490  0.54078434  0.04738585    -0.27600
H277        H  0.46841159  0.91346354  0.02567898     0.11300
H278        H  0.46229280  0.90697052  0.98314140     0.12400
H279        H  0.04069761  0.59467284  0.01685082     0.11500
H280        H  0.03472355  0.58827908  0.97428312     0.10800
H281        H  0.01658496  0.54978027  0.93884312     0.16100
H282        H  0.47085741  0.93399966  0.94520516     0.12100
H283        H  0.48626171  0.95179054  0.06098737     0.14900
H284        H  0.03233715  0.56746510  0.05486699     0.14700
C285        C  0.06043076  0.40164786  0.36444219    -0.18200
C286        C  0.07630438  0.38580277  0.35091636    -0.20400
C287        C  0.09318076  0.40110577  0.32962177     0.20300
C288        C  0.09450811  0.43304791  0.32205874    -0.03300
C289        C  0.07821483  0.44884572  0.33560021    -0.06300
C290        C  0.06104504  0.43300278  0.35685725     0.20600
C291        C  0.07901368  0.48040080  0.32781878     0.18700
C292        C  0.09636459  0.49605429  0.30670152    -0.17800
C293        C  0.11273576  0.48056539  0.29336811    -0.20000
C294        C  0.11186882  0.44907053  0.30087773     0.20200
C295        C  0.12771540  0.43310472  0.28744272    -0.33100
C296        C  0.12574372  0.40082731  0.29455537     0.00900
C297        C  0.10845727  0.38492028  0.31565696    -0.24400
C298        C  0.04481549  0.44878631  0.37016974    -0.29000
C299        C  0.04568608  0.48040140  0.36261781     0.06600
C300        C  0.06269370  0.49590221  0.34134565    -0.27600
H301        H  0.04750980  0.38927092  0.38078927     0.11300
H302        H  0.07524620  0.36146168  0.35707948     0.12400
H303        H  0.09784255  0.02062353  0.30071884     0.11500
H304        H  0.12592726  0.49312689  0.27709513     0.10800
H305        H  0.14080268  0.44530609  0.27105047     0.16100
H306        H  0.10714435  0.36017694  0.32122869     0.12100
H307        H  0.03126171  0.43624116  0.38634289     0.14900
H308        H  0.06439694  0.02067636  0.33569665     0.14700
C309        C  0.35647182  0.49180936  0.35812833    -0.18200
C310        C  0.32480846  0.47648134  0.34428090    -0.20400
C311        C  0.31825549  0.44972017  0.32732639     0.20300
C312        C  0.34416955  0.43862677  0.32424206    -0.03300
C313        C  0.37629005  0.45444287  0.33790476    -0.06300
C314        C  0.38235686  0.48093537  0.35510292     0.20600
C315        C  0.40234233  0.44366589  0.33431688     0.18700
C316        C  0.39599591  0.41705257  0.31741591    -0.17800
C317        C  0.36402847  0.40107250  0.30414589    -0.20000
C318        C  0.33808230  0.41169612  0.30745409     0.20200
C319        C  0.30621804  0.39578173  0.29411061    -0.33100
C320        C  0.28013467  0.40650211  0.29685041     0.00900
C321        C  0.28640809  0.43380059  0.31339001    -0.24400
C322        C  0.41423510  0.49600655  0.36884657    -0.29000
C323        C  0.44027847  0.48547369  0.36502047     0.06600
C324        C  0.43431455  0.45961050  0.34768788    -0.27600
H325        H  0.36067153  0.01208477  0.37117995     0.11300
H326        H  0.30535019  0.48543037  0.34692360     0.12400
H327        H  0.41571806  0.40849121  0.31451522     0.11500
H328        H  0.35963353  0.38044328  0.29123051     0.10800
H329        H  0.30210299  0.37526317  0.28116050     0.16100
H330        H  0.26655126  0.44235972  0.31550898     0.12100
H331        H  0.41906102  0.01610142  0.38218585     0.14900
H332        H  0.45442104  0.45147843  0.34490726     0.14700
C333        C  0.15039578  0.21395772  0.35119054    -0.18200
C334        C  0.13479612  0.18237868  0.36454220    -0.20400
C335        C  0.10036544  0.15255950  0.35867031     0.20300
C336        C  0.08132696  0.15471892  0.33927857    -0.03300
C337        C  0.09683127  0.18673306  0.32602058    -0.06300
C338        C  0.13173319  0.21642849  0.33184350     0.20600
C339        C  0.07751871  0.18885615  0.30681095     0.18700
C340        C  0.04313309  0.15908954  0.30087288    -0.17800
C341        C  0.02796798  0.12728709  0.31384248    -0.20000
C342        C  0.04683657  0.12482287  0.33303427     0.20200
C343        C  0.03178777  0.09297841  0.34606985    -0.33100
C344        C  0.05049470  0.09061374  0.36543026     0.00900
C345        C  0.08470678  0.12057421  0.37173734    -0.24400
C346        C  0.14739678  0.24779741  0.31805969    -0.29000
C347        C  0.12812661  0.24998909  0.29891420     0.06600
C348        C  0.09306334  0.22050076  0.29362508    -0.27600
H349        H  0.17714357  0.23647238  0.35599199     0.11300
H350        H  0.14977555  0.18118816  0.37937482     0.12400
H351        H  0.02807091  0.16032822  0.28610440     0.11500
H352        H  0.00145157  0.10458246  0.30884517     0.10800
H353        H  0.00512219  0.07021217  0.34138082     0.16100
H354        H  0.09937619  0.11875246  0.38654788     0.12100
H355        H  0.17444810  0.27040544  0.32218802     0.14900
H356        H  0.07821926  0.22169381  0.27869287     0.14700
C357        C  0.02298155  0.40188879  0.17632146    -0.18200
C358        C  0.03824114  0.38516583  0.18893068    -0.20400
C359        C  0.07573686  0.39762483  0.18735265     0.20300
C360        C  0.09801462  0.42660712  0.17249391    -0.03300
C361        C  0.08248121  0.44314227  0.15944528    -0.06300
C362        C  0.04490775  0.43107420  0.16170965     0.20600
C363        C  0.10461200  0.47208033  0.14444969     0.18700
C364        C  0.14204100  0.48415150  0.14267398    -0.17800
C365        C  0.15756182  0.46817484  0.15595669    -0.20000
C366        C  0.13586531  0.43954504  0.17106313     0.20200
C367        C  0.15139699  0.42425270  0.18520262    -0.33100
C368        C  0.12936922  0.39592784  0.20052526     0.00900
C369        C  0.09142589  0.38224913  0.20094187    -0.24400
C370        C  0.02994849  0.44855865  0.14947444    -0.29000
C371        C  0.05175815  0.47721952  0.13448378     0.06600
C372        C  0.08893420  0.48861733  0.13174953    -0.27600
H373        H  0.99409073  0.39215791  0.17811181     0.11300
H374        H  0.02078026  0.36284611  0.20027339     0.12400
H375        H  0.15943267  0.50631051  0.13124809     0.11500
H376        H  0.18662019  0.47841834  0.15454429     0.10800
H377        H  0.18060732  0.43491670  0.18467829     0.16100
H378        H  0.07404565  0.36043086  0.21263804     0.12100
H379        H  0.00120555  0.43961939  0.15134039     0.14900
H380        H  0.10568832  0.51082825  0.12017035     0.14700
C381        C  0.32461772  0.36681254  0.15898301    -0.18200
C382        C  0.35638502  0.38238282  0.14534388    -0.20400
C383        C  0.38307681  0.41928248  0.14812048     0.20300
C384        C  0.37770723  0.44069916  0.16484566    -0.03300
C385        C  0.34539385  0.42514538  0.17829566    -0.06300
C386        C  0.31873966  0.38794572  0.17547094     0.20600
C387        C  0.33984021  0.44687357  0.19459292     0.18700
C388        C  0.36658117  0.48367800  0.19756411    -0.17800
C389        C  0.39877269  0.49893694  0.18450967    -0.20000
C390        C  0.40458971  0.47771084  0.16811685     0.20200
C391        C  0.43671398  0.49292531  0.15484425    -0.33100
C392        C  0.44186144  0.47197349  0.13786516     0.00900
C393        C  0.41498018  0.43523052  0.13447404    -0.24400
C394        C  0.28682057  0.37263702  0.18920344    -0.29000
C395        C  0.28105392  0.39436705  0.20533202     0.06600
C396        C  0.30774814  0.43146993  0.20777449    -0.27600
H397        H  0.30454758  0.33825397  0.15654506     0.11300
H398        H  0.36012064  0.36551131  0.13264821     0.12400
H399        H  0.36265473  0.50066735  0.21007460     0.11500
H400        H  0.41910415  0.02736683  0.18718875     0.10800
H401        H  0.45739945  0.02134883  0.15726924     0.16100
H402        H  0.41916783  0.41909220  0.12141438     0.12100
H403        H  0.26650485  0.34404213  0.18727260     0.14900
H404        H  0.30394300  0.44844883  0.22037607     0.14700
C405        C  0.12800556  0.15854104  0.20087817    -0.18200
C406        C  0.11205843  0.12633624  0.18760318    -0.20400
C407        C  0.08634953  0.12006396  0.17020071     0.20300
C408        C  0.07655868  0.14650978  0.16617381    -0.03300
C409        C  0.09234418  0.17884119  0.17976984    -0.06300
C410        C  0.11832355  0.18490166  0.19708101     0.20600
C411        C  0.08212269  0.20504613  0.17604149     0.18700
C412        C  0.05640502  0.19872840  0.15862518    -0.15400
C413        C  0.04115522  0.16693252  0.14491569    -0.20000
C414        C  0.05107277  0.14070766  0.14853139     0.20200
C415        C  0.03604722  0.10884303  0.13479318    -0.33100
C416        C  0.04560788  0.08239946  0.13878491     0.00900
C417        C  0.07043849  0.08795484  0.15665829    -0.24400
C418        C  0.13409872  0.21714131  0.21037179    -0.29000
C419        C  0.12397837  0.24339082  0.20691571     0.06600
C420        C  0.09776570  0.23703136  0.18978816    -0.27600
H421        H  0.14787961  0.16280177  0.21416273     0.11300
H422        H  0.11994805  0.10639557  0.19088514     0.12400
H423        H  0.04820448  0.21848704  0.15551746     0.11500
H424        H  0.52159725  0.16289683  0.13142492     0.10800
H425        H  0.51660212  0.10440597  0.12108269     0.16100
H426        H  0.07800714  0.06767402  0.15960588     0.12100
H427        H  0.15388845  0.22147400  0.22375036     0.14900
H428        H  0.08970564  0.25700470  0.18708404     0.14700
O429        O  0.12660665  0.84985149  0.27769958    -0.82200
C430        C  0.24844467  0.87923289  0.22057520     0.97200
O431        O  0.24177075  0.90124004  0.23117669    -0.71300
O432        O  0.17953431  0.89732292  0.22036911    -0.74900
Al433      Al  0.20239023  0.89736694  0.24908662     1.49000
C434        C  0.14537707  0.88216700  0.21750781     0.92500
O435        O  0.12550228  0.79567822  0.22371853    -0.81100
O436        O  0.17852526  0.80101127  0.28060946    -0.74600
Al437      Al  0.12906293  0.82436013  0.25064700     1.90100
O438        O  0.16794388  0.78394691  0.23398092    -0.73700
O439        O  0.24070101  0.86039765  0.27066412    -0.73600
O440        O  0.22882859  0.84548893  0.22402691    -0.79200
O441        O  0.22867828  0.90377460  0.27758713    -0.77400
O442        O  0.17780416  0.84881971  0.25062296    -1.13600
O443        O  0.16841043  0.90440850  0.26673635    -0.72800
C444        C  0.14123980  0.88397384  0.27918921     0.98000
C445        C  0.14012325  0.77637671  0.22196940     0.94400
Al446      Al  0.20189132  0.82484137  0.25219263     1.55600
O447        O  0.12389292  0.85612502  0.23028585    -0.77400
C448        C  0.24767611  0.88929388  0.28127954     0.98500
C449        C  0.14433397  0.78151186  0.28305745     0.93400
O450        O  0.12315788  0.78693136  0.27077326    -0.82700
C451        C  0.01230695  0.01207031  0.08819369     0.86100
C452        C  0.03477775  0.99606541  0.09783644    -0.54100
C453        C  0.03523633  0.99498876  0.12161802     0.09100
C454        C  0.01394083  0.01075936  0.13377941     0.20000
C455        C  0.47441961  0.98971867  0.09954060    -0.54800
C456        C  0.47522605  0.98923060  0.12332746     0.09200
C457        C  0.02911390  0.54984642  0.10016446    -0.54400
C458        C  0.02998021  0.54901819  0.12396752     0.09700
H459        H  0.04795078  0.98522200  0.08680431     0.14200
H460        H  0.01429558  0.50992730  0.15314771     0.00000
H461        H  0.44907218  0.97630855  0.08964251     0.14500
H462        H  0.04018632  0.57535366  0.09129843     0.14300
C463        C  0.51322635  0.51771808  0.41310989     0.86100
C464        C  0.03452892  0.55636173  0.40288140    -0.54100
C465        C  0.03369517  0.55679829  0.37902005     0.09100
C466        C  0.51225805  0.51873935  0.36762145     0.20000
C467        C  0.47462930  0.00072050  0.40254915    -0.54800
C468        C  0.47417953  0.00129712  0.37881630     0.09200
C469        C  0.03042731  0.99751897  0.40110491    -0.54400
C470        C  0.02974820  0.99767295  0.37732088     0.09700
H471        H  0.04876896  0.58126638  0.41307338     0.14200
H472        H  0.51135350  0.51884073  0.34827302     0.00000
H473        H  0.44984963  0.98882163  0.41295767     0.14500
H474        H  0.04280643  0.98490662  0.41078234     0.14300
O475        O  0.37793407  0.65365097  0.77497917    -0.82200
C476        C  0.25126946  0.61753223  0.72081530     0.97200
O477        O  0.25787712  0.59641110  0.73215200    -0.71300
O478        O  0.31908840  0.59779798  0.72073116    -0.74900
Al479      Al  0.29876819  0.60233727  0.74962314     1.49000
C480        C  0.35298015  0.61242691  0.71705643     0.92500
O481        O  0.37301692  0.70033533  0.71996878    -0.81100
O482        O  0.32481775  0.70156593  0.77829894    -0.74600
Al483      Al  0.37224207  0.67543830  0.74763343     1.90100
O484        O  0.33220291  0.71392792  0.73144271    -0.73700
O485        O  0.26183803  0.64207330  0.77034143    -0.73600
O486        O  0.27133698  0.65156365  0.72337563    -0.79200
O487        O  0.27502232  0.60026886  0.77857758    -0.77400
O488        O  0.32357242  0.65093050  0.74932250    -1.13600
O489        O  0.33453271  0.59777560  0.76700594    -0.72800
C490        C  0.36370694  0.61982852  0.77762453     0.98000
C491        C  0.35843158  0.71957125  0.71835231     0.94400
Al492      Al  0.29965752  0.67514275  0.75073608     1.55600
O493        O  0.37536525  0.64099244  0.72803502    -0.77400
C494        C  0.25631302  0.61522014  0.78219699     0.98500
C495        C  0.35912302  0.72109164  0.78023269     0.93400
O496        O  0.37970075  0.71532674  0.76714491    -0.82700
C497        C  0.98977014  0.98838390  0.91184849     0.86100
C498        C  0.46788869  0.94999663  0.90074731    -0.54100
C499        C  0.46907872  0.94934192  0.87696978     0.09100
C500        C  0.99103004  0.98702486  0.86621093     0.20000
C501        C  0.02847649  0.50470645  0.90134456    -0.54800
C502        C  0.02901924  0.50409444  0.87759351     0.09200
C503        C  0.47370163  0.50963828  0.90025763    -0.54400
C504        C  0.47432928  0.50893011  0.87632329     0.09700
H505        H  0.45266305  0.92501403  0.91030751     0.14200
H506        H  0.99210353  0.98654305  0.84683971     0.00000
H507        H  0.05323296  0.51639398  0.91181950     0.14500
H508        H  0.46240249  0.52349890  0.91013196     0.14300
C509        C  0.98852939  0.48152305  0.58727888     0.86100
C510        C  0.46442238  0.49549575  0.59760673    -0.54100
C511        C  0.46309607  0.49532150  0.62138388     0.09100
C512        C  0.98540223  0.98052208  0.63277437     0.20000
C513        C  0.02581066  0.50440092  0.59942876    -0.54800
C514        C  0.02415780  0.50379524  0.62315493     0.09200
C515        C  0.47262283  0.94325700  0.59764585    -0.54400
C516        C  0.47070389  0.94287046  0.62146096     0.09700
H517        H  0.45088554  0.50607735  0.58707215     0.14200
H518        H  0.98425762  0.98037095  0.65215307     0.00000
H519        H  0.05144939  0.51914204  0.59000860     0.14500
H520        H  0.46213159  0.91828569  0.58763124     0.14300
C521        C  0.46572460  0.83761930  0.80552664    -0.18200
C522        C  0.48075243  0.87025786  0.81829191    -0.20400
C523        C  0.45931245  0.87636115  0.83432443     0.20300
C524        C  0.42253669  0.84898979  0.83788198    -0.03300
C525        C  0.40722670  0.81620963  0.82476218    -0.06300
C526        C  0.42891488  0.81066468  0.80842824     0.20600
C527        C  0.37009186  0.78934890  0.82765719     0.18700
C528        C  0.34897102  0.79505740  0.84420940    -0.17800
C529        C  0.36430812  0.82728707  0.85750395    -0.20000
C530        C  0.40092860  0.85455949  0.85430814     0.20200
C531        C  0.41627544  0.88739293  0.86709097    -0.33100
C532        C  0.45261510  0.91500634  0.86319828     0.00900
C533        C  0.47394944  0.90937427  0.84679312    -0.24400
C534        C  0.41322877  0.77871564  0.79481710    -0.29000
C535        C  0.37585311  0.75241167  0.79684409     0.06600
C536        C  0.35456731  0.75769630  0.81358527    -0.27600
H537        H  0.48275860  0.83369968  0.79309375     0.11300
H538        H  0.00899278  0.89078370  0.81560412     0.12400
H539        H  0.32049120  0.77470405  0.84675192     0.11500
H540        H  0.34736285  0.83108318  0.87008322     0.10800
H541        H  0.39986617  0.89176635  0.87981085     0.16100
H542        H  0.00201369  0.93037579  0.84420022     0.12100
H543        H  0.42993219  0.77503193  0.78197133     0.14900
H544        H  0.32583323  0.73754273  0.81536846     0.14700
C545        C  0.11981765  0.60312326  0.82922782    -0.18200
C546        C  0.15265579  0.61949241  0.81684895    -0.20400
C547        C  0.17358784  0.60267021  0.81514693     0.20300
C548        C  0.16171732  0.56932629  0.82622815    -0.03300
C549        C  0.12876109  0.55298874  0.83895413    -0.06300
C550        C  0.10759778  0.56987219  0.84026669     0.20600
C551        C  0.11685294  0.51967671  0.85020414     0.18700
C552        C  0.13785666  0.50293105  0.84845284    -0.17800
C553        C  0.17030842  0.51891485  0.83554364    -0.20000
C554        C  0.18247259  0.55206280  0.82431772     0.20200
C555        C  0.21446753  0.56780826  0.81075232    -0.33100
C556        C  0.22588395  0.60061358  0.79918089     0.00900
C557        C  0.20568668  0.61822894  0.80200631    -0.24400
C558        C  0.07463136  0.55321039  0.85262815    -0.29000
C559        C  0.06310949  0.52047667  0.86411572     0.06600
C560        C  0.08415207  0.50376351  0.86295849    -0.27600
H561        H  0.10393936  0.61645967  0.83014453     0.11300
H562        H  0.16146939  0.64509701  0.80837038     0.12400
H563        H  0.12905096  0.47733012  0.85694268     0.11500
H564        H  0.18582806  0.50524847  0.83426007     0.10800
H565        H  0.22977230  0.55401083  0.80863304     0.16100
H566        H  0.21417864  0.64358222  0.79325046     0.12100
H567        H  0.05813398  0.56590897  0.85367555     0.14900
H568        H  0.07483265  0.47831140  0.87181329     0.14700
C569        C  0.38978914  0.52222193  0.79297579    -0.18200
C570        C  0.40544374  0.50683304  0.80659512    -0.20400
C571        C  0.42567050  0.52501435  0.82666895     0.20300
C572        C  0.43093413  0.55947256  0.83276446    -0.03300
C573        C  0.41544799  0.57523024  0.81883202    -0.06300
C574        C  0.39425411  0.55615299  0.79910686     0.20600
C575        C  0.42070968  0.60975458  0.82481887     0.18700
C576        C  0.44178456  0.62830680  0.84457262    -0.17800
C577        C  0.45671604  0.61247429  0.85855958    -0.20000
C578        C  0.45116330  0.57791712  0.85295423     0.20200
C579        C  0.46517168  0.56133142  0.86723343    -0.33100
C580        C  0.45968454  0.52678554  0.86135433     0.00900
C581        C  0.44027049  0.50907525  0.84088491    -0.24400
C582        C  0.37749045  0.57107431  0.78601206    -0.29000
C583        C  0.38199117  0.60516477  0.79202278     0.06600
C584        C  0.40435868  0.62478005  0.81115988    -0.27600
H585        H  0.37386068  0.50738495  0.77773569     0.11300
H586        H  0.40109874  0.98039072  0.80172655     0.12400
H587        H  0.44628843  0.65486817  0.84941036     0.11500
H588        H  0.47241729  0.62718604  0.87388326     0.10800
H589        H  0.98112050  0.57566981  0.88266452     0.16100
H590        H  0.43564971  0.98236054  0.83635809     0.12100
H591        H  0.36103483  0.55617336  0.77093784     0.14900
H592        H  0.40824826  0.65120800  0.81573329     0.14700
C593        C  0.43453209  0.78899446  0.65088552    -0.18200
C594        C  0.45034356  0.82042096  0.63740392    -0.20400
C595        C  0.44346366  0.84860695  0.64247777     0.20300
C596        C  0.41996791  0.84486138  0.66109738    -0.03300
C597        C  0.40366091  0.81299326  0.67447966    -0.06300
C598        C  0.41133708  0.78508298  0.66956213     0.20600
C599        C  0.38009411  0.80933395  0.69299204     0.18700
C600        C  0.37287492  0.83729685  0.69796323    -0.17800
C601        C  0.38931218  0.86899774  0.68487310    -0.20000
C602        C  0.41302309  0.87310542  0.66651500     0.20200
C603        C  0.42998756  0.90502627  0.65354739    -0.33100
C604        C  0.45343370  0.90897980  0.63502733     0.00900
C605        C  0.45984813  0.88058222  0.62941797    -0.24400
C606        C  0.39614322  0.75410043  0.68363515    -0.29000
C607        C  0.37293790  0.75056848  0.70226685     0.06600
C608        C  0.36465202  0.77808714  0.70653280    -0.27600
H609        H  0.44061299  0.76782678  0.64677858     0.11300
H610        H  0.96873992  0.82298284  0.62334937     0.12400
H611        H  0.35480506  0.83481164  0.71215606     0.11500
H612        H  0.38360627  0.89037015  0.68917168     0.10800
H613        H  0.42446561  0.92660332  0.65762676     0.16100
H614        H  0.97839246  0.88374544  0.61530511     0.12100
H615        H  0.40252248  0.73295200  0.68021471     0.14900
H616        H  0.34700469  0.77578726  0.72096544     0.14700
C617        C  0.17464122  0.62763889  0.65948810    -0.18200
C618        C  0.14272396  0.61168761  0.64590402    -0.20400
C619        C  0.11594584  0.57492718  0.64858336     0.20300
C620        C  0.12135348  0.55408848  0.66518401    -0.03300
C621        C  0.15380887  0.57001238  0.67858175    -0.06300
C622        C  0.18056785  0.60702556  0.67581954     0.20600
C623        C  0.15942805  0.54882234  0.69473715     0.18700
C624        C  0.13256352  0.51218637  0.69761137    -0.17800
C625        C  0.10025936  0.49656565  0.68459323    -0.20000
C626        C  0.09441445  0.51723327  0.66833744     0.20200
C627        C  0.06227802  0.50153654  0.65501168    -0.33100
C628        C  0.05714251  0.52181336  0.63808562     0.00900
C629        C  0.08399781  0.55849083  0.63489246    -0.24400
C630        C  0.21263916  0.62267837  0.68947042    -0.29000
C631        C  0.21846682  0.60152845  0.70552033     0.06600
C632        C  0.19169695  0.56458304  0.70787843    -0.27600
H633        H  0.19480127  0.65607196  0.65711826     0.11300
H634        H  0.13897251  0.62812800  0.63330835     0.12400
H635        H  0.13649875  0.49560412  0.70999992     0.11500
H636        H  0.08000711  0.96827791  0.68715996     0.10800
H637        H  0.04179652  0.97321900  0.65727397     0.16100
H638        H  0.07986049  0.57414144  0.62186072     0.12100
H639        H  0.23301309  0.65117063  0.68757509     0.14900
H640        H  0.19559254  0.54807322  0.72036373     0.14700
C641        C  0.35589812  0.50750854  0.64129176    -0.18200
C642        C  0.34029786  0.52381982  0.65475409    -0.20400
C643        C  0.36129123  0.55091821  0.67144003     0.20300
C644        C  0.39832685  0.56137198  0.67464373    -0.03300
C645        C  0.41384831  0.54452521  0.66140392    -0.06300
C646        C  0.39267001  0.51768518  0.64446427     0.20600
C647        C  0.45066623  0.55464890  0.66514185     0.18700
C648        C  0.47172235  0.58160676  0.68176453    -0.17800
C649        C  0.45652672  0.59858693  0.69461476    -0.20000
C650        C  0.41996343  0.58865235  0.69115711     0.20200
C651        C  0.40475876  0.60549088  0.70414625    -0.33100
C652        C  0.36787220  0.59524231  0.70139051     0.00900
C653        C  0.34608355  0.56769264  0.68506394    -0.24400
C654        C  0.40877540  0.50164402  0.63109436    -0.29000
C655        C  0.44535893  0.51157274  0.63506233     0.06600
C656        C  0.46594510  0.53779115  0.65215850    -0.27600
H657        H  0.33916839  0.48685021  0.62845026     0.11300
H658        H  0.31183383  0.51535070  0.65202875     0.12400
H659        H  0.50002127  0.58966425  0.68476991     0.11500
H660        H  0.47336175  0.61944087  0.70733372     0.10800
H661        H  0.42169761  0.62616219  0.71695616     0.16100
H662        H  0.31754550  0.55942653  0.68296763     0.12100
H663        H  0.39289349  0.48119240  0.61790896     0.14900
H664        H  0.49425484  0.54563644  0.65499042     0.14700
C665        C  0.02552720  0.56151730  0.51888639    -0.18200
C666        C  0.02966705  0.56718694  0.49484471    -0.20400
C667        C  0.01947231  0.53786855  0.47930032     0.20300
C668        C  0.00531672  0.50257116  0.48809529    -0.03300
C669        C  0.00138188  0.49689280  0.51236103    -0.06300
C670        C  0.01127379  0.52648196  0.52775848     0.20600
C671        C  0.48718037  0.96155030  0.52119228     0.18700
C672        C  0.47728873  0.93224505  0.50566672    -0.17800
C673        C  0.48068044  0.93776776  0.48158345    -0.20000
C674        C  0.49435316  0.97271761  0.47267295     0.20200
C675        C  0.49698093  0.97836943  0.44859949    -0.33100
C676        C  0.51169918  0.51366248  0.43950551     0.00900
C677        C  0.02277111  0.54327789  0.45513639    -0.24400
C678        C  0.00656355  0.52055164  0.55176652    -0.29000
C679        C  0.99223433  0.48547443  0.56088701     0.06600
C680        C  0.48289689  0.95607787  0.54534625    -0.27600
H681        H  0.03333895  0.58454637  0.53054812     0.11300
H682        H  0.04058216  0.59445902  0.48840415     0.12400
H683        H  0.46654884  0.90501291  0.51212863     0.11500
H684        H  0.47246441  0.91466576  0.46991868     0.10800
H685        H  0.48762574  0.95522831  0.43679114     0.16100
H686        H  0.03284292  0.57037213  0.44889459     0.12100
H687        H  0.01415426  0.54341664  0.56356003     0.14900
H688        H  0.47231953  0.92892599  0.55154070     0.14700
C689        C  0.47698638  0.43743992  0.01535886    -0.18200
C690        C  0.47346637  0.43375195  0.99107171    -0.20400
C691        C  0.48434276  0.46429295  0.97712996     0.20300
C692        C  0.99909260  0.99884043  0.98775470    -0.03300
C693        C  0.00278762  0.00261230  0.01230197    -0.06300
C694        C  0.49161029  0.47175420  0.02613356     0.20600
C695        C  0.01776970  0.03722500  0.02294861     0.18700
C696        C  0.02912090  0.06782422  0.00895404    -0.17800
C697        C  0.02563796  0.06409706  0.98463152    -0.20000
C698        C  0.01058293  0.02971209  0.97385935     0.20200
C699        C  0.00695326  0.02569196  0.94946662    -0.33100
C700        C  0.99140084  0.99112561  0.93856739     0.00900
C701        C  0.48079014  0.46069819  0.95276897    -0.24400
C702        C  0.49510466  0.47564516  0.05048749    -0.29000
C703        C  0.00984326  0.01003357  0.06149739     0.06600
C704        C  0.02117864  0.04078802  0.04737553    -0.27600
H705        H  0.46825849  0.41342168  0.02572063     0.11300
H706        H  0.46209667  0.40692981  0.98318474     0.12400
H707        H  0.04072271  0.09463107  0.01680278     0.11500
H708        H  0.03466680  0.08815596  0.97424146     0.10800
H709        H  0.01642725  0.04959481  0.93883746     0.16100
H710        H  0.47064946  0.43395480  0.94525445     0.12100
H711        H  0.48616899  0.45174333  0.06103036     0.14900
H712        H  0.03240804  0.06749803  0.05484286     0.14700
C713        C  0.05998387  0.90123357  0.36422544    -0.18200
C714        C  0.07586361  0.88541284  0.35068162    -0.20400
C715        C  0.09295561  0.90088794  0.32946907     0.20300
C716        C  0.09449523  0.93297584  0.32200866    -0.03300
C717        C  0.07819000  0.94874616  0.33556396    -0.06300
C718        C  0.06080333  0.93273299  0.35673822     0.20600
C719        C  0.07919125  0.98044345  0.32787760     0.18700
C720        C  0.09676905  0.99627404  0.30684924    -0.17800
C721        C  0.11315686  0.98081385  0.29350520    -0.20000
C722        C  0.11207531  0.94916995  0.30091347     0.20200
C723        C  0.12791586  0.93322110  0.28745685    -0.33100
C724        C  0.12572464  0.90079681  0.29446066     0.00900
C725        C  0.10823383  0.88472887  0.31548237    -0.24400
C726        C  0.04456628  0.94849505  0.37006572    -0.29000
C727        C  0.04562164  0.98023527  0.36259913     0.06600
C728        C  0.06283995  0.99590476  0.34140960    -0.27600
H729        H  0.04689380  0.88872320  0.38050749     0.11300
H730        H  0.07464034  0.86095587  0.35676557     0.12400
H731        H  0.09727635  0.52028951  0.30049414     0.11500
H732        H  0.12652288  0.99351093  0.27730030     0.10800
H733        H  0.14116550  0.94555428  0.27112797     0.16100
H734        H  0.10675354  0.85987311  0.32097341     0.12100
H735        H  0.03086390  0.93584387  0.38618203     0.14900
H736        H  0.06411271  0.52057543  0.33555766     0.14700
C737        C  0.35640770  0.99170174  0.35811315    -0.18200
C738        C  0.32476229  0.97641347  0.34425043    -0.20400
C739        C  0.31823725  0.94970959  0.32725831     0.20300
C740        C  0.34416954  0.93864525  0.32414544    -0.03300
C741        C  0.37626914  0.95441764  0.33782709    -0.06300
C742        C  0.38230122  0.98084329  0.35506742     0.20600
C743        C  0.40233151  0.94365877  0.33421931     0.18700
C744        C  0.39602296  0.91711704  0.31727188    -0.17800
C745        C  0.36407888  0.90118396  0.30397952    -0.20000
C746        C  0.33811555  0.91177872  0.30731534     0.20200
C747        C  0.30625728  0.89588451  0.29396694    -0.33100
C748        C  0.28013896  0.90655061  0.29675079     0.00900
C749        C  0.28639150  0.93380596  0.31331998    -0.24400
C750        C  0.41415398  0.99586568  0.36883233    -0.29000
C751        C  0.44020621  0.98534973  0.36498952     0.06600
C752        C  0.43427633  0.95955108  0.34761653    -0.27600
H753        H  0.36075958  0.51224009  0.37116414     0.11300
H754        H  0.30529228  0.98534271  0.34691387     0.12400
H755        H  0.41575469  0.90857291  0.31435347     0.11500
H756        H  0.35971008  0.88060564  0.29103062     0.10800
H757        H  0.30216368  0.87541069  0.28098711     0.16100
H758        H  0.26651212  0.94233046  0.31546788     0.12100
H759        H  0.41916660  0.51628845  0.38217106     0.14900
H760        H  0.45439019  0.95143280  0.34482099     0.14700
C761        C  0.15034268  0.71398437  0.35107930    -0.18200
C762        C  0.13473777  0.68242135  0.36444362    -0.20400
C763        C  0.10026486  0.65263741  0.35861251     0.20300
C764        C  0.08118220  0.65481661  0.33925322    -0.03300
C765        C  0.09669298  0.68681826  0.32598335    -0.06300
C766        C  0.13164251  0.71647377  0.33176147     0.20600
C767        C  0.07734545  0.68896506  0.30680315     0.18700
C768        C  0.04290886  0.65923559  0.30091179    -0.17800
C769        C  0.02773712  0.62744063  0.31389193    -0.20000
C770        C  0.04664896  0.62494901  0.33304947     0.20200
C771        C  0.03161071  0.59310449  0.34608801    -0.33100
C772        C  0.05036893  0.59072826  0.36541548     0.00900
C773        C  0.08461277  0.62066421  0.37168655    -0.24400
C774        C  0.14732213  0.74781981  0.31795955    -0.29000
C775        C  0.12802994  0.75003167  0.29883624     0.06600
C776        C  0.09291242  0.72059109  0.29359616    -0.27600
H777        H  0.17712683  0.73646983  0.35584563     0.11300
H778        H  0.14974905  0.68121242  0.37925163     0.12400
H779        H  0.02781611  0.66049352  0.28616802     0.11500
H780        H  0.00118591  0.60476199  0.30892734     0.10800
H781        H  0.00492431  0.57034652  0.34142723     0.16100
H782        H  0.09931571  0.61882668  0.38647245     0.12100
H783        H  0.17441050  0.77039174  0.32205298     0.14900
H784        H  0.07804297  0.72180063  0.27868432     0.14700
C785        C  0.02299421  0.90153621  0.17590458    -0.18200
C786        C  0.03825248  0.88478545  0.18848403    -0.20400
C787        C  0.07579225  0.89740780  0.18702327     0.20300
C788        C  0.09811840  0.92657115  0.17229886    -0.03300
C789        C  0.08259097  0.94313664  0.15927895    -0.06300
C790        C  0.04496951  0.93091282  0.16143897     0.20600
C791        C  0.10477496  0.97226854  0.14442601     0.18700
C792        C  0.14224598  0.98448715  0.14275231    -0.17800
C793        C  0.15775712  0.96847691  0.15600956    -0.20000
C794        C  0.13600991  0.93966866  0.17098561     0.20200
C795        C  0.15152857  0.92436667  0.18512491    -0.33100
C796        C  0.12945149  0.89588575  0.20033526     0.00900
C797        C  0.09147463  0.88202870  0.20061281    -0.24400
C798        C  0.03001317  0.94844052  0.14925229    -0.29000
C799        C  0.05188118  0.97730010  0.13441087     0.06600
C800        C  0.08910516  0.98885080  0.13176899    -0.27600
H801        H  0.99406732  0.89168347  0.17760965     0.11300
H802        H  0.02075484  0.86232286  0.19972069     0.12400
H803        H  0.15967630  0.00679197  0.13143330     0.11500
H804        H  0.18684739  0.97884126  0.15468702     0.10800
H805        H  0.18076551  0.93516213  0.18470398     0.16100
H806        H  0.07405442  0.86007415  0.21221223     0.12100
H807        H  0.00123346  0.93938900  0.15104080     0.14900
H808        H  0.10589579  0.01120965  0.12029736     0.14700
C809        C  0.32443853  0.86694075  0.15873891    -0.18200
C810        C  0.35619818  0.88252516  0.14509400    -0.20400
C811        C  0.38294391  0.91939401  0.14793507     0.20300
C812        C  0.37762558  0.94077318  0.16471764    -0.03300
C813        C  0.34532206  0.92520767  0.17817422    -0.06300
C814        C  0.31862487  0.88803109  0.17529699     0.20600
C815        C  0.33982789  0.94689694  0.19453744     0.18700
C816        C  0.36660561  0.98367867  0.19755607    -0.17800
C817        C  0.39878824  0.99894817  0.18449377    -0.20000
C818        C  0.40455742  0.97775494  0.16804744     0.20200
C819        C  0.43669002  0.99296959  0.15478606    -0.33100
C820        C  0.44179993  0.97204909  0.13776444     0.00900
C821        C  0.41485915  0.93534460  0.13430352    -0.24400
C822        C  0.28673091  0.87270074  0.18905136    -0.29000
C823        C  0.28103353  0.89439068  0.20525160     0.06600
C824        C  0.30776030  0.93147428  0.20774006    -0.27600
H825        H  0.30432962  0.83840315  0.15625608     0.11300
H826        H  0.35989149  0.86568584  0.13234895     0.12400
H827        H  0.36271955  0.00063832  0.21011437     0.11500
H828        H  0.41905289  0.52737694  0.18716307     0.10800
H829        H  0.45738200  0.52132925  0.15727990     0.16100
H830        H  0.41901467  0.91923313  0.12120592     0.12100
H831        H  0.26638002  0.84412296  0.18708125     0.14900
H832        H  0.30400065  0.94841969  0.22039484     0.14700
C833        C  0.12791833  0.65845992  0.20086493    -0.18200
C834        C  0.11192940  0.62623010  0.18761396    -0.20400
C835        C  0.08625294  0.61997626  0.17019226     0.20300
C836        C  0.07654685  0.64647202  0.16611657    -0.03300
C837        C  0.09237475  0.67882931  0.17968729    -0.06300
C838        C  0.11831144  0.68486524  0.19702390     0.20600
C839        C  0.08223056  0.70508062  0.17591209     0.18700
C840        C  0.05656052  0.69879129  0.15846876    -0.15400
C841        C  0.04127029  0.66696976  0.14478427    -0.20000
C842        C  0.05109893  0.64069170  0.14845276     0.20200
C843        C  0.03602230  0.60879553  0.13474513    -0.33100
C844        C  0.04549646  0.58230089  0.13878478     0.00900
C845        C  0.07029247  0.58783730  0.15667771    -0.24400
C846        C  0.13410939  0.71712026  0.21030066    -0.29000
C847        C  0.12404724  0.74340463  0.20680626     0.06600
C848        C  0.09789216  0.73707826  0.18964496    -0.27600
H849        H  0.14776067  0.66270212  0.21416791     0.11300
H850        H  0.11975764  0.60625342  0.19093173     0.12400
H851        H  0.04842345  0.71858842  0.15532365     0.11500
H852        H  0.52188008  0.66301786  0.13125195     0.10800
H853        H  0.51676609  0.60444690  0.12101807     0.16100
H854        H  0.07780221  0.56752158  0.15965890     0.12100
H855        H  0.15385898  0.72143250  0.22370312     0.14900
H856        H  0.08988276  0.75708253  0.18690887     0.14700
O857        O  0.62662411  0.34985841  0.27781879    -0.82200
C858        C  0.74843303  0.37915767  0.22067717     0.97200
O859        O  0.74177691  0.40117624  0.23128168    -0.71300
O860        O  0.67955945  0.39732232  0.22048120    -0.74900
Al861      Al  0.70240846  0.39733205  0.24919648     1.49000
C862        C  0.64540215  0.38219658  0.21763058     0.92500
O863        O  0.62546492  0.29566308  0.22382613    -0.81100
O864        O  0.67848791  0.30095658  0.28071206    -0.74600
Al865      Al  0.62905419  0.32435447  0.25075993     1.90100
O866        O  0.66788730  0.28389926  0.23408006    -0.73700
O867        O  0.74068352  0.36031474  0.27076472    -0.73600
O868        O  0.72879762  0.34541506  0.22412698    -0.79200
O869        O  0.72868217  0.40370505  0.27769456    -0.77400
O870        O  0.67779496  0.34878495  0.25072928    -1.13600
O871        O  0.66845009  0.40440376  0.26685152    -0.72800
C872        C  0.64127444  0.38398356  0.27930539     0.98000
C873        C  0.64007364  0.27635045  0.22206725     0.94400
Al874      Al  0.70185608  0.32477832  0.25229375     1.55600
O875        O  0.62391128  0.35614733  0.23040339    -0.77400
C876        C  0.74766528  0.38920877  0.28138536     0.98500
C877        C  0.64429674  0.28147159  0.28316409     0.93400
O878        O  0.62312651  0.28690756  0.27088433    -0.82700
C879        C  0.51232281  0.51202188  0.08821184     0.86100
C880        C  0.53480982  0.49604256  0.09787113    -0.54100
C881        C  0.53524774  0.49496494  0.12165510     0.09100
C882        C  0.51391280  0.51070837  0.13380002     0.20000
C883        C  0.97434829  0.48963805  0.09956624    -0.54800
C884        C  0.97515049  0.48913305  0.12335361     0.09200
C885        C  0.52917223  0.04993681  0.10012596    -0.54400
C886        C  0.53004559  0.04912164  0.12393006     0.09700
H887        H  0.54800984  0.48521840  0.08684784     0.14200
H888        H  0.51437632  0.01004798  0.15311907     0.00000
H889        H  0.94900228  0.47623990  0.08966660     0.14500
H890        H  0.54023826  0.07543978  0.09125207     0.14300
C891        C  0.01322231  0.01759139  0.41310129     0.86100
C892        C  0.53448342  0.05618447  0.40287692    -0.54100
C893        C  0.53367428  0.05663241  0.37901597     0.09100
C894        C  0.01224825  0.01864407  0.36761452     0.20000
C895        C  0.97472211  0.50084504  0.40257183    -0.54800
C896        C  0.97424552  0.50141276  0.37884009     0.09200
C897        C  0.53046528  0.49767009  0.40112559    -0.54400
C898        C  0.52978667  0.49780137  0.37734109     0.09700
H899        H  0.54874148  0.08108553  0.41307074     0.14200
H900        H  0.01134470  0.01875932  0.34826629     0.00000
H901        H  0.94995204  0.48891764  0.41299041     0.14500
H902        H  0.54286090  0.48508449  0.41081425     0.14300
O903        O  0.87796597  0.15364186  0.77500171    -0.82200
C904        C  0.75127403  0.11757185  0.72088546     0.97200
O905        O  0.75789789  0.09643505  0.73218939    -0.71300
O906        O  0.81910086  0.09780609  0.72075079    -0.74900
Al907      Al  0.79878502  0.10233872  0.74965078     1.49000
C908        C  0.85299211  0.11241806  0.71707999     0.92500
O909        O  0.87301152  0.20032602  0.71999954    -0.81100
O910        O  0.82489467  0.20156837  0.77837261    -0.74600
Al911      Al  0.87226666  0.17543542  0.74766169     1.90100
O912        O  0.83222534  0.21393891  0.73151089    -0.73700
O913        O  0.76189317  0.14209419  0.77043628    -0.73600
O914        O  0.77133397  0.15159947  0.72346788    -0.79200
O915        O  0.77503884  0.10024173  0.77860689    -0.77400
O916        O  0.82359610  0.15093333  0.74936736    -1.13600
O917        O  0.83454634  0.09777025  0.76702681    -0.72800
C918        C  0.86372217  0.11981635  0.77764694     0.98000
C919        C  0.85842337  0.21956236  0.71839550     0.94400
Al920      Al  0.79969537  0.17515885  0.75081554     1.55600
O921        O  0.87537999  0.14098173  0.72805908    -0.77400
C922        C  0.75635936  0.11521438  0.78226483     0.98500
C923        C  0.85920132  0.22110401  0.78028426     0.93400
O924        O  0.87976123  0.21534285  0.76717584    -0.82700
C925        C  0.48985051  0.48848700  0.91184403     0.86100
C926        C  0.96787517  0.45006954  0.90076560    -0.54100
C927        C  0.96907241  0.44939928  0.87698885     0.09100
C928        C  0.49109464  0.48709487  0.86620590     0.20000
C929        C  0.52844938  0.00469141  0.90132658    -0.54800
C930        C  0.52898925  0.00408576  0.87757596     0.09200
C931        C  0.97360916  0.00952657  0.90026991    -0.54400
C932        C  0.97424721  0.00883658  0.87633775     0.09700
H933        H  0.95262455  0.42509073  0.91033069     0.14200
H934        H  0.49216854  0.48660424  0.84683522     0.00000
H935        H  0.55320857  0.01639566  0.91179930     0.14500
H936        H  0.96229394  0.02336920  0.91014753     0.14300
C937        C  0.48860431  0.98157238  0.58729737     0.86100
C938        C  0.96444893  0.99548635  0.59760231    -0.54100
C939        C  0.96311823  0.99531955  0.62138022     0.09100
C940        C  0.48538358  0.48052578  0.63277280     0.20000
C941        C  0.52588201  0.00450153  0.59944770    -0.54800
C942        C  0.52422175  0.00392250  0.62317497     0.09200
C943        C  0.97250347  0.44318629  0.59760437    -0.54400
C944        C  0.97058686  0.44276955  0.62142043     0.09700
H945        H  0.95091505  0.00606567  0.58706309     0.14200
H946        H  0.48424621  0.48037687  0.65215151     0.00000
H947        H  0.55152185  0.01924440  0.59002912     0.14500
H948        H  0.96196725  0.41822388  0.58757319     0.14300
C949        C  0.96575042  0.33775129  0.80548542    -0.18200
C950        C  0.98075950  0.37039170  0.81824848    -0.20400
C951        C  0.95933213  0.37644398  0.83432188     0.20300
C952        C  0.92259299  0.34901713  0.83792582    -0.03300
C953        C  0.90730101  0.31623292  0.82480981    -0.06300
C954        C  0.92897169  0.31074106  0.80843122     0.20600
C955        C  0.87019774  0.28931597  0.82775175     0.18700
C956        C  0.84909580  0.29497054  0.84434866    -0.17800
C957        C  0.86441631  0.32720495  0.85763788    -0.20000
C958        C  0.90100034  0.35453608  0.85439286     0.20200
C959        C  0.91632312  0.38737908  0.86716500    -0.33100
C960        C  0.95262393  0.41505098  0.86322518     0.00900
C961        C  0.97394495  0.40946181  0.84678399    -0.24400
C962        C  0.91329508  0.27878899  0.79482041    -0.29000
C963        C  0.87594404  0.25242975  0.79689342     0.06600
C964        C  0.85468117  0.25766220  0.81368068    -0.27600
H965        H  0.98277259  0.33387397  0.79301905     0.11300
H966        H  0.50888490  0.39111393  0.81531062     0.12400
H967        H  0.82064124  0.27457234  0.84692880     0.11500
H968        H  0.84748396  0.33095933  0.87025038     0.10800
H969        H  0.89992183  0.39171298  0.87991288     0.16100
H970        H  0.50195596  0.43059796  0.84402133     0.12100
H971        H  0.92997977  0.27514567  0.78193878     0.14900
H972        H  0.82596729  0.23746559  0.81550056     0.14700
C973        C  0.62034178  0.10358087  0.82973014    -0.18200
C974        C  0.65319491  0.11993170  0.81736457    -0.20400
C975        C  0.67388614  0.10287512  0.81543924     0.20300
C976        C  0.66175120  0.06930313  0.82627925    -0.03300
C977        C  0.62877110  0.05297005  0.83898111    -0.06300
C978        C  0.60785814  0.07010301  0.84052636     0.20600
C979        C  0.61658895  0.01941470  0.84997430     0.18700
C980        C  0.63735001  0.00243435  0.84800106    -0.17800
C981        C  0.66983242  0.01842726  0.83512515    -0.20000
C982        C  0.68226441  0.05181010  0.82414925     0.20200
C983        C  0.71428398  0.06756784  0.81061001    -0.33100
C984        C  0.72595304  0.10059782  0.79926529     0.00900
C985        C  0.70599959  0.11842866  0.80230860    -0.24400
C986        C  0.57487498  0.05345726  0.85287380    -0.29000
C987        C  0.56308133  0.02047013  0.86410220     0.06600
C988        C  0.58386436  0.00349858  0.86270191    -0.27600
H989        H  0.60465651  0.11710750  0.83082417     0.11300
H990        H  0.66221002  0.14571225  0.80907243     0.12400
H991        H  0.62833264  0.97664701  0.85629352     0.11500
H992        H  0.68516321  0.00458253  0.83366790     0.10800
H993        H  0.72939450  0.05359996  0.80831624     0.16100
H994        H  0.71469651  0.14395911  0.79373038     0.12100
H995        H  0.55857112  0.06634938  0.85410535     0.14900
H996        H  0.57433567  0.97785664  0.87135942     0.14700
C997        C  0.88964326  0.02211809  0.79303661    -0.18200
C998        C  0.90527817  0.00671262  0.80665748    -0.20400
C999        C  0.92553828  0.02490417  0.82671834     0.20300
C1000       C  0.93084564  0.05938286  0.83280393    -0.03300
C1001       C  0.91537974  0.07515645  0.81887004    -0.06300
C1002       C  0.89416168  0.05607494  0.79915400     0.20600
C1003       C  0.92069075  0.10970401  0.82484409     0.18700
C1004       C  0.94178736  0.12825916  0.84458991    -0.17800
C1005       C  0.95669940  0.11241107  0.85857897    -0.20000
C1006       C  0.95110515  0.07783591  0.85298268     0.20200
C1007       C  0.96510895  0.06124365  0.86725726    -0.33100
C1008       C  0.95959036  0.02668605  0.86138165     0.00900
C1009       C  0.94013696  0.00895991  0.84092846    -0.24400
C1010       C  0.87742944  0.07101967  0.78605309    -0.29000
C1011       C  0.88198267  0.10513535  0.79204939     0.06600
C1012       C  0.90436815  0.12475090  0.81117942    -0.27600
H1013       H  0.87369216  0.00727648  0.77780463     0.11300
H1014       H  0.90104806  0.48037322  0.80178552     0.12400
H1015       H  0.94632656  0.15483674  0.84941831     0.11500
H1016       H  0.97242261  0.12712718  0.87389517     0.10800
H1017       H  0.48094504  0.07551342  0.88271911     0.16100
H1018       H  0.93566220  0.48240282  0.83639718     0.12100
H1019       H  0.86095651  0.05611602  0.77098509     0.14900
H1020       H  0.90829461  0.15119630  0.81574238     0.14700
C1021       C  0.93431109  0.28885386  0.65082424    -0.18200
C1022       C  0.95009364  0.32026070  0.63732437    -0.20400
C1023       C  0.94324494  0.34846470  0.64240804     0.20300
C1024       C  0.91979610  0.34475021  0.66105032    -0.03300
C1025       C  0.90351753  0.31290127  0.67445169    -0.06300
C1026       C  0.91117534  0.28497961  0.66952934     0.20600
C1027       C  0.88000690  0.30927735  0.69299170     0.18700
C1028       C  0.87280452  0.33725095  0.69796602    -0.17800
C1029       C  0.88921495  0.36893355  0.68485707    -0.20000
C1030       C  0.91288183  0.37301195  0.66647685     0.20200
C1031       C  0.92984646  0.40492761  0.65350285    -0.33100
C1032       C  0.95326631  0.40886003  0.63496984     0.00900
C1033       C  0.95962913  0.38043441  0.62934244    -0.24400
C1034       C  0.89602763  0.25402573  0.68362737    -0.29000
C1035       C  0.87288522  0.25053262  0.70228950     0.06600
C1036       C  0.86460889  0.27805776  0.70655791    -0.27600
H1037       H  0.94037391  0.26767533  0.64671172     0.11300
H1038       H  0.46854832  0.32289522  0.62328647     0.12400
H1039       H  0.85477503  0.33479175  0.71217848     0.11500
H1040       H  0.88353019  0.39031820  0.68916199     0.10800
H1041       H  0.92435889  0.42652408  0.65759462     0.16100
H1042       H  0.47826292  0.38368691  0.61526412     0.12100
H1043       H  0.90239498  0.23286980  0.68020271     0.14900
H1044       H  0.84700632  0.27578584  0.72101155     0.14700
C1045       C  0.67464167  0.12776543  0.65960294    -0.18200
C1046       C  0.64273615  0.11182691  0.64600743    -0.20400
C1047       C  0.61596777  0.07505660  0.64865848     0.20300
C1048       C  0.62136895  0.05419877  0.66524808    -0.03300
C1049       C  0.65381228  0.07011027  0.67865723    -0.06300
C1050       C  0.68056632  0.10712986  0.67591765     0.20600
C1051       C  0.65942794  0.04889920  0.69479762     0.18700
C1052       C  0.63256673  0.01225725  0.69765095    -0.17800
C1053       C  0.60027429  0.99664842  0.68462175    -0.20000
C1054       C  0.59443859  0.01733457  0.66837594     0.20200
C1055       C  0.56232100  0.00164600  0.65503338    -0.33100
C1056       C  0.55719472  0.02193923  0.63811521     0.00900
C1057       C  0.58403779  0.05862773  0.63494889    -0.24400
C1058       C  0.71263452  0.12276467  0.68957036    -0.29000
C1059       C  0.71846437  0.10159077  0.70559890     0.06600
C1060       C  0.69169376  0.06464298  0.70794117    -0.27600
H1061       H  0.69479701  0.15620494  0.65725237     0.11300
H1062       H  0.63898857  0.12828333  0.63342289     0.12400
H1063       H  0.63649793  0.99565968  0.71002887     0.11500
H1064       H  0.58004218  0.46825859  0.68709255     0.10800
H1065       H  0.54180654  0.47321582  0.65723705     0.16100
H1066       H  0.57990516  0.07429087  0.62192456     0.12100
H1067       H  0.73300793  0.15126015  0.68768959     0.14900
H1068       H  0.69558973  0.04811659  0.72041262     0.14700
C1069       C  0.85593784  0.00756816  0.64125963    -0.18200
C1070       C  0.84033412  0.02386967  0.65472980    -0.20400
C1071       C  0.86131244  0.05092897  0.67144127     0.20300
C1072       C  0.89833615  0.06135050  0.67466274    -0.03300
C1073       C  0.91386109  0.04451347  0.66141362    -0.06300
C1074       C  0.89269874  0.01771429  0.64444850     0.20600
C1075       C  0.95066683  0.05460648  0.66516787     0.18700
C1076       C  0.97170749  0.08152317  0.68181681    -0.17800
C1077       C  0.95650921  0.09849274  0.69467669    -0.20000
C1078       C  0.91995803  0.08859053  0.69120211     0.20200
C1079       C  0.90475287  0.10542588  0.70419682    -0.33100
C1080       C  0.86788000  0.09521750  0.70141912     0.00900
C1081       C  0.84610312  0.06769978  0.68507026    -0.24400
C1082       C  0.90880759  0.00168076  0.63107170    -0.29000
C1083       C  0.94537902  0.01157590  0.63505691     0.06600
C1084       C  0.96594901  0.03775827  0.65217619    -0.27600
H1085       H  0.83921887  0.98694104  0.62839876     0.11300
H1086       H  0.81187916  0.01542460  0.65198985     0.12400
H1087       H  0.99999714  0.08955692  0.68483566     0.11500
H1088       H  0.97333360  0.11931512  0.70741534     0.10800
H1089       H  0.92168106  0.12606772  0.71702499     0.16100
H1090       H  0.81757501  0.05946107  0.68295708     0.12100
H1091       H  0.89293548  0.98125770  0.61786929     0.14900
H1092       H  0.99424940  0.04558128  0.65502251     0.14700
C1093       C  0.52553110  0.06145791  0.51885849    -0.18200
C1094       C  0.52962901  0.06709110  0.49481336    -0.20400
C1095       C  0.51939253  0.03774789  0.47928415     0.20300
C1096       C  0.50522849  0.00245990  0.48809602    -0.03300
C1097       C  0.50133708  0.99681807  0.51236592    -0.06300
C1098       C  0.51127869  0.02643431  0.52774887     0.20600
C1099       C  0.98723016  0.46161399  0.52116840     0.18700
C1100       C  0.97739696  0.43233692  0.50562958    -0.17800
C1101       C  0.98083026  0.43789485  0.48155092    -0.20000
C1102       C  0.99448786  0.47285284  0.47265889     0.20200
C1103       C  0.99713625  0.47853281  0.44858968    -0.33100
C1104       C  0.01170095  0.01354016  0.43949699     0.00900
C1105       C  0.52266643  0.04312664  0.45511888    -0.24400
C1106       C  0.50661654  0.02054368  0.55176147    -0.29000
C1107       C  0.49229028  0.98548074  0.56090232     0.06600
C1108       C  0.98289600  0.45610190  0.54531680    -0.27600
H1109       H  0.53337756  0.08450618  0.53050872     0.11300
H1110       H  0.54054946  0.09435681  0.48835824     0.12400
H1111       H  0.96666635  0.40509803  0.51207727     0.11500
H1112       H  0.97265340  0.41481261  0.46987491     0.10800
H1113       H  0.98780612  0.45540608  0.43677162     0.16100
H1114       H  0.53274525  0.07021813  0.44886732     0.12100
H1115       H  0.51423718  0.04342875  0.56354262     0.14900
H1116       H  0.97233690  0.42894453  0.55149804     0.14700
C1117       C  0.97680602  0.93739470  0.01538523    -0.18200
C1118       C  0.97327156  0.93368071  0.99109941    -0.20400
C1119       C  0.98418316  0.96421416  0.97714334     0.20300
C1120       C  0.49921730  0.49890464  0.98775601    -0.03300
C1121       C  0.50290367  0.50265150  0.01230565    -0.06300
C1122       C  0.99147438  0.97172583  0.02614309     0.20600
C1123       C  0.51784875  0.53724774  0.02296804     0.18700
C1124       C  0.52918611  0.56785934  0.00898626    -0.17800
C1125       C  0.52570912  0.56415647  0.98466145    -0.20000
C1126       C  0.51067547  0.52978421  0.97387310     0.20200
C1127       C  0.50702961  0.52578273  0.94947785    -0.33100
C1128       C  0.49149619  0.49122555  0.93856541     0.00900
C1129       C  0.98063578  0.96059825  0.95278190    -0.24400
C1130       C  0.99499979  0.97564611  0.05049308    -0.29000
C1131       C  0.50989979  0.51001399  0.06150974     0.06600
C1132       C  0.52122865  0.54078267  0.04739836    -0.27600
H1133       H  0.96805868  0.91338383  0.02575891     0.11300
H1134       H  0.96187249  0.90684916  0.98322530     0.12400
H1135       H  0.54076480  0.59465494  0.01684655     0.11500
H1136       H  0.53471981  0.58822334  0.97428295     0.10800
H1137       H  0.51647442  0.54969051  0.93885821     0.16100
H1138       H  0.97045448  0.93384708  0.94527865     0.12100
H1139       H  0.98605481  0.95175381  0.06104744     0.14900
H1140       H  0.53242228  0.56747839  0.05487215     0.14700
C1141       C  0.56016227  0.40143621  0.36435952    -0.18200
C1142       C  0.57604313  0.38560011  0.35083148    -0.20400
C1143       C  0.59307112  0.40100813  0.32959121     0.20300
C1144       C  0.59455023  0.43304918  0.32208896    -0.03300
C1145       C  0.57824464  0.44883544  0.33562944    -0.06300
C1146       C  0.56091740  0.43288515  0.35682957     0.20600
C1147       C  0.57918324  0.48048348  0.32790153     0.18700
C1148       C  0.59670046  0.49625014  0.30684600    -0.17800
C1149       C  0.61308808  0.48077467  0.29351633    -0.20000
C1150       C  0.61206751  0.44917846  0.30096597     0.20200
C1151       C  0.62790466  0.43321147  0.28752299    -0.33100
C1152       C  0.62576843  0.40082895  0.29456691     0.00900
C1153       C  0.60834178  0.38482626  0.31561726    -0.24400
C1154       C  0.54467252  0.44865675  0.37013957    -0.29000
C1155       C  0.54566775  0.48035163  0.36263390     0.06600
C1156       C  0.56283049  0.49596001  0.34141903    -0.27600
H1157       H  0.54712029  0.38897592  0.38066268     0.11300
H1158       H  0.57486832  0.36118188  0.35694868     0.12400
H1159       H  0.59753580  0.02037094  0.30065317     0.11500
H1160       H  0.62640523  0.49342180  0.27728950     0.10800
H1161       H  0.64110564  0.44549409  0.27117266     0.16100
H1162       H  0.60690542  0.36000427  0.32113966     0.12100
H1163       H  0.53100946  0.43604471  0.38627326     0.14900
H1164       H  0.56421925  0.02052991  0.33566203     0.14700
C1165       C  0.85637079  0.49163247  0.35821181    -0.18200
C1166       C  0.82471107  0.47631007  0.34436268    -0.20400
C1167       C  0.81820407  0.44961663  0.32736726     0.20300
C1168       C  0.84416306  0.43859042  0.32423976    -0.03300
C1169       C  0.87627794  0.45439938  0.33790657    -0.06300
C1170       C  0.88229607  0.48081973  0.35514779     0.20600
C1171       C  0.90237214  0.44368687  0.33428086     0.18700
C1172       C  0.89607637  0.41714891  0.31733340    -0.17800
C1173       C  0.86411551  0.40117729  0.30405638    -0.20000
C1174       C  0.83812351  0.41173117  0.30740697     0.20200
C1175       C  0.80625517  0.39581168  0.29406699    -0.33100
C1176       C  0.78012052  0.40645424  0.29685976     0.00900
C1177       C  0.78635346  0.43369297  0.31343610    -0.24400
C1178       C  0.91416874  0.49588545  0.36889418    -0.29000
C1179       C  0.94025406  0.48541926  0.36503144     0.06600
C1180       C  0.93433664  0.45962345  0.34765944    -0.27600
H1181       H  0.86069962  0.01210144  0.37123499     0.11300
H1182       H  0.80521810  0.48520756  0.34703731     0.12400
H1183       H  0.91583246  0.40863958  0.31440193     0.11500
H1184       H  0.85975857  0.38060534  0.29110563     0.10800
H1185       H  0.80217105  0.37534703  0.28108245     0.16100
H1186       H  0.76645761  0.44219482  0.31559166     0.12100
H1187       H  0.91912216  0.01616024  0.38221803     0.14900
H1188       H  0.95447644  0.45154282  0.34485006     0.14700
C1189       C  0.65025558  0.21392651  0.35119862    -0.18200
C1190       C  0.63466163  0.18233956  0.36454075    -0.20400
C1191       C  0.60022767  0.15252664  0.35866956     0.20300
C1192       C  0.58117277  0.15470305  0.33929335    -0.03300
C1193       C  0.59667051  0.18672798  0.32604630    -0.06300
C1194       C  0.63158311  0.21641138  0.33186277     0.20600
C1195       C  0.57734731  0.18886984  0.30684972     0.18700
C1196       C  0.54294930  0.15911376  0.30091960    -0.17800
C1197       C  0.52779192  0.12729775  0.31387688    -0.20000
C1198       C  0.54667830  0.12481063  0.33305062     0.20200
C1199       C  0.53164645  0.09294830  0.34606992    -0.33100
C1200       C  0.55037141  0.09057274  0.36541670     0.00900
C1201       C  0.58458352  0.12053067  0.37172259    -0.24400
C1202       C  0.64725595  0.24777767  0.31807804    -0.29000
C1203       C  0.62798901  0.24998092  0.29893560     0.06600
C1204       C  0.59290229  0.22051598  0.29366270    -0.27600
H1205       H  0.67701020  0.23643351  0.35599573     0.11300
H1206       H  0.64965104  0.18113562  0.37936308     0.12400
H1207       H  0.52787627  0.16036721  0.28616279     0.11500
H1208       H  0.50127021  0.10459945  0.30888242     0.10800
H1209       H  0.50498212  0.07017928  0.34138212     0.16100
H1210       H  0.59926426  0.11869866  0.38652316     0.12100
H1211       H  0.67432046  0.27036982  0.32219768     0.14900
H1212       H  0.57805435  0.22172082  0.27873703     0.14700
C1213       C  0.52306578  0.40173834  0.17612133    -0.18200
C1214       C  0.53832233  0.38500504  0.18872055    -0.20400
C1215       C  0.57584411  0.39756046  0.18721625     0.20300
C1216       C  0.59815505  0.42664704  0.17243622    -0.03300
C1217       C  0.58262658  0.44319386  0.15939571    -0.06300
C1218       C  0.54502312  0.43103043  0.16159236     0.20600
C1219       C  0.60478966  0.47224054  0.14448044     0.18700
C1220       C  0.64224576  0.48440154  0.14277246    -0.17800
C1221       C  0.65775992  0.46841174  0.15604969    -0.20000
C1222       C  0.63603055  0.43967893  0.17108113     0.20200
C1223       C  0.65154879  0.42437771  0.18522564    -0.33100
C1224       C  0.62948276  0.39595493  0.20047797     0.00900
C1225       C  0.59152162  0.38217956  0.20080854    -0.24400
C1226       C  0.53006388  0.44852945  0.14937631    -0.29000
C1227       C  0.55190580  0.47730128  0.13446939     0.06600
C1228       C  0.58911374  0.48879405  0.13179492    -0.27600
H1229       H  0.49415258  0.39193407  0.17785713     0.11300
H1230       H  0.52083694  0.36260353  0.20000182     0.12400
H1231       H  0.65966233  0.50664262  0.13140744     0.11500
H1232       H  0.68683792  0.47872776  0.15469449     0.10800
H1233       H  0.68077438  0.43511578  0.18476625     0.16100
H1234       H  0.57411046  0.36027960  0.21244492     0.12100
H1235       H  0.50129745  0.43951948  0.15119305     0.14900
H1236       H  0.60588930  0.51108772  0.12027598     0.14700
C1237       C  0.82443762  0.36681289  0.15886249    -0.18200
C1238       C  0.85618305  0.38239577  0.14520251    -0.20400
C1239       C  0.88290676  0.41927884  0.14801148     0.20300
C1240       C  0.87758294  0.44067080  0.16478108    -0.03300
C1241       C  0.84529400  0.42510555  0.17825341    -0.06300
C1242       C  0.81861510  0.38791786  0.17540447     0.20600
C1243       C  0.83979441  0.44680852  0.19460216     0.18700
C1244       C  0.86655449  0.48360147  0.19759406    -0.17800
C1245       C  0.89872174  0.49887110  0.18451644    -0.20000
C1246       C  0.90449385  0.47766634  0.16808138     0.20200
C1247       C  0.93660998  0.49288331  0.15480342    -0.33100
C1248       C  0.94172572  0.47195126  0.13779390     0.00900
C1249       C  0.91480575  0.43523137  0.13436190    -0.24400
C1250       C  0.78672823  0.37259366  0.18916779    -0.29000
C1251       C  0.78102079  0.39430034  0.20534973     0.06600
C1252       C  0.80773669  0.43139119  0.20781464    -0.27600
H1253       H  0.80434507  0.33826590  0.15640228     0.11300
H1254       H  0.85988123  0.36554481  0.13246969     0.12400
H1255       H  0.86266492  0.50057154  0.21014184     0.11500
H1256       H  0.91918859  0.02746194  0.18723303     0.10800
H1257       H  0.95749011  0.02140664  0.15732885     0.16100
H1258       H  0.91896700  0.41910959  0.12127536     0.12100
H1259       H  0.76638970  0.34400923  0.18721702     0.14900
H1260       H  0.80397354  0.44835096  0.22045583     0.14700
C1261       C  0.62801322  0.15853796  0.20082607    -0.18200
C1262       C  0.61205030  0.12633187  0.18755175    -0.20400
C1263       C  0.58634191  0.12007053  0.17015132     0.20300
C1264       C  0.57657805  0.14653486  0.16611975    -0.03300
C1265       C  0.59237888  0.17886752  0.17971562    -0.06300
C1266       C  0.61834701  0.18491081  0.19703098     0.20600
C1267       C  0.58217636  0.20508639  0.17598712     0.18700
C1268       C  0.55647359  0.19878820  0.15856457    -0.15400
C1269       C  0.54120981  0.16699182  0.14485479    -0.20000
C1270       C  0.55109758  0.14074624  0.14847648     0.20200
C1271       C  0.53604414  0.10887193  0.13474558    -0.33100
C1272       C  0.54556896  0.08240467  0.13874727     0.00900
C1273       C  0.57040139  0.08795177  0.15661768    -0.24400
C1274       C  0.63411871  0.21714087  0.21033254    -0.29000
C1275       C  0.62400291  0.24339602  0.20688444     0.06600
C1276       C  0.59781500  0.23706110  0.18974425    -0.27600
H1277       H  0.64788121  0.16278658  0.21411193     0.11300
H1278       H  0.61992271  0.10637887  0.19083532     0.12400
H1279       H  0.54829025  0.21855951  0.15545512     0.11500
H1280       H  0.02153512  0.16282471  0.13148788     0.10800
H1281       H  0.01659975  0.10436672  0.12113168     0.16100
H1282       H  0.57794768  0.06765582  0.15956993     0.12100
H1283       H  0.65389549  0.22145740  0.22371632     0.14900
H1284       H  0.58976334  0.25704122  0.18704252     0.14700
O1285       O  0.62663222  0.84980108  0.27778322    -0.82200
C1286       C  0.74848224  0.87935512  0.22061218     0.97200
O1287       O  0.74181025  0.90134454  0.23124152    -0.71300
O1288       O  0.67953659  0.89740429  0.22046275    -0.74900
Al1289     Al  0.70240574  0.89740800  0.24916794     1.49000
C1290       C  0.64537495  0.88225865  0.21762088     0.92500
O1291       O  0.62554623  0.79575145  0.22373479    -0.81100
O1292       O  0.67861522  0.80102402  0.28060105    -0.74600
Al1293     Al  0.62909950  0.82437421  0.25069689     1.90100
O1294       O  0.66800610  0.78402795  0.23396612    -0.73700
O1295       O  0.74076220  0.86044237  0.27067743    -0.73600
O1296       O  0.72885954  0.84560436  0.22403418    -0.79200
O1297       O  0.72869007  0.90377002  0.27766421    -0.77400
O1298       O  0.67784119  0.84885878  0.25066647    -1.13600
O1299       O  0.66840538  0.90438374  0.26683921    -0.72800
C1300       C  0.64123525  0.88391930  0.27928362     0.98000
C1301       C  0.64017136  0.77645517  0.22196840     0.94400
Al1302     Al  0.70195212  0.82490324  0.25219406     1.55600
O1303       O  0.62390291  0.85617935  0.23038033    -0.77400
C1304       C  0.74770441  0.88930004  0.28133249     0.98500
C1305       C  0.64442801  0.78148867  0.28304507     0.93400
O1306       O  0.62322925  0.78690632  0.27078156    -0.82700
C1307       C  0.51233116  0.01207283  0.08815979     0.86100
C1308       C  0.53478971  0.99607545  0.09784106    -0.54100
C1309       C  0.53519269  0.99499460  0.12162630     0.09100
C1310       C  0.51385937  0.01075672  0.13374845     0.20000
C1311       C  0.97442100  0.98972856  0.09960971    -0.54800
C1312       C  0.97528468  0.98924285  0.12339499     0.09200
C1313       C  0.52915748  0.54988151  0.10017974    -0.54400
C1314       C  0.53006153  0.54907218  0.12398315     0.09700
H1315       H  0.54800031  0.98524754  0.08683119     0.14200
H1316       H  0.51445332  0.50999636  0.15316971     0.00000
H1317       H  0.94904904  0.97632429  0.08973654     0.14500
H1318       H  0.54018676  0.57538041  0.09130551     0.14300
C1319       C  0.01323628  0.51775491  0.41310372     0.86100
C1320       C  0.53457652  0.55632952  0.40289026    -0.54100
C1321       C  0.53375906  0.55677543  0.37902747     0.09100
C1322       C  0.01223526  0.51875885  0.36761538     0.20000
C1323       C  0.97471968  0.00077660  0.40256420    -0.54800
C1324       C  0.97425547  0.00136695  0.37883238     0.09200
C1325       C  0.53037439  0.99752831  0.40112047    -0.54400
C1326       C  0.52970197  0.99765729  0.37733562     0.09700
H1327       H  0.54883106  0.58123009  0.41308481     0.14200
H1328       H  0.01131358  0.51886717  0.34826782     0.00000
H1329       H  0.94994634  0.98888250  0.41297886     0.14500
H1330       H  0.54276930  0.98494569  0.41081292     0.14300
O1331       O  0.87790614  0.65364895  0.77507867    -0.82200
C1332       C  0.75134657  0.61754593  0.72081027     0.97200
O1333       O  0.75788599  0.59642085  0.73220225    -0.71300
O1334       O  0.81906440  0.59769507  0.72088268    -0.74900
Al1335     Al  0.79872003  0.60232857  0.74973585     1.49000
C1336       C  0.85295332  0.61231782  0.71720286     0.92500
O1337       O  0.87305922  0.70026932  0.72001565    -0.81100
O1338       O  0.82477672  0.70154917  0.77830743    -0.74600
Al1339     Al  0.87223744  0.67539703  0.74770876     1.90100
O1340       O  0.83229340  0.71393284  0.73146697    -0.73700
O1341       O  0.76177060  0.64211377  0.77027875    -0.73600
O1342       O  0.77144763  0.65158007  0.72334182    -0.79200
O1343       O  0.77492130  0.60034383  0.77866726    -0.77400
O1344       O  0.82356541  0.65091488  0.74938265    -1.13600
O1345       O  0.83443528  0.59777593  0.76717806    -0.72800
C1346       C  0.86363894  0.61983244  0.77776776     0.98000
C1347       C  0.85851529  0.71954060  0.71838485     0.94400
Al1348     Al  0.79968062  0.67515545  0.75072846     1.55600
O1349       O  0.87534859  0.64091130  0.72815114    -0.77400
C1350       C  0.75615981  0.61526847  0.78217121     0.98500
C1351       C  0.85908156  0.72106270  0.78026166     0.93400
O1352       O  0.87968016  0.71530192  0.76719085    -0.82700
C1353       C  0.48999198  0.98851456  0.91179691     0.86100
C1354       C  0.96766554  0.94987211  0.90079552    -0.54100
C1355       C  0.96885823  0.94923350  0.87701879     0.09100
C1356       C  0.49125248  0.98713298  0.86615654     0.20000
C1357       C  0.52830168  0.50462208  0.90136938    -0.54800
C1358       C  0.52883978  0.50403063  0.87761741     0.09200
C1359       C  0.97391112  0.50976355  0.90022071    -0.54400
C1360       C  0.97455513  0.50905688  0.87628856     0.09700
H1361       H  0.95245002  0.92487871  0.91035029     0.14200
H1362       H  0.49233248  0.98665460  0.84678535     0.00000
H1363       H  0.55306156  0.51631891  0.91184165     0.14500
H1364       H  0.96262552  0.52364321  0.91008791     0.14300
C1365       C  0.48859408  0.48149344  0.58729247     0.86100
C1366       C  0.96439021  0.49555943  0.59760142    -0.54100
C1367       C  0.96305101  0.49535455  0.62137926     0.09100
C1368       C  0.48535436  0.98059860  0.63277528     0.20000
C1369       C  0.52587978  0.50442635  0.59943029    -0.54800
C1370       C  0.52424302  0.50385544  0.62315686     0.09200
C1371       C  0.97266121  0.94316925  0.59764616    -0.54400
C1372       C  0.97075802  0.94279457  0.62146174     0.09700
H1373       H  0.95088164  0.50617809  0.58707371     0.14200
H1374       H  0.48420452  0.98044697  0.65215345     0.00000
H1375       H  0.55151176  0.51916532  0.59000255     0.14500
H1376       H  0.96218754  0.91819594  0.58763601     0.14300
C1377       C  0.96564109  0.83756596  0.80560386    -0.18200
C1378       C  0.98064445  0.87019977  0.81837099    -0.20400
C1379       C  0.95917314  0.87629463  0.83438158     0.20300
C1380       C  0.92238937  0.84892511  0.83791269    -0.03300
C1381       C  0.90710591  0.81615180  0.82479210    -0.06300
C1382       C  0.92882667  0.81061134  0.80848261     0.20600
C1383       C  0.86996518  0.78929253  0.82766232     0.18700
C1384       C  0.84880853  0.79499666  0.84418691    -0.17800
C1385       C  0.86411901  0.82722123  0.85748255    -0.20000
C1386       C  0.90074740  0.85448874  0.85431470     0.20200
C1387       C  0.91607078  0.88731096  0.86710378    -0.33100
C1388       C  0.95241953  0.91491596  0.86324015     0.00900
C1389       C  0.97378726  0.90929676  0.84685662    -0.24400
C1390       C  0.91316638  0.77866671  0.79487147    -0.29000
C1391       C  0.87578694  0.75236813  0.79687515     0.06600
C1392       C  0.85446917  0.75764534  0.81359191    -0.27600
H1393       H  0.98269781  0.83364951  0.79318836     0.11300
H1394       H  0.50909584  0.89084078  0.81550516     0.12400
H1395       H  0.82032284  0.77464397  0.84670712     0.11500
H1396       H  0.84714875  0.83101617  0.87004183     0.10800
H1397       H  0.89963931  0.89168173  0.87980727     0.16100
H1398       H  0.50216896  0.93045330  0.84411273     0.12100
H1399       H  0.92989201  0.77498390  0.78204299     0.14900
H1400       H  0.82573118  0.73749172  0.81535519     0.14700
C1401       C  0.61807704  0.60167184  0.82774652    -0.18200
C1402       C  0.65089061  0.61809398  0.81534440    -0.20400
C1403       C  0.67253249  0.60199056  0.81431590     0.20300
C1404       C  0.66140672  0.56933749  0.82609699    -0.03300
C1405       C  0.62849434  0.55298287  0.83886858    -0.06300
C1406       C  0.60660430  0.56911031  0.83949296     0.20600
C1407       C  0.61736296  0.52040766  0.85085885     0.18700
C1408       C  0.63907065  0.50437322  0.84977160    -0.17800
C1409       C  0.67146131  0.52033625  0.83679749    -0.20000
C1410       C  0.68287463  0.55277753  0.82485484     0.20200
C1411       C  0.71484641  0.56850693  0.81126120    -0.33100
C1412       C  0.72557288  0.60064689  0.79904336     0.00900
C1413       C  0.70463295  0.61758145  0.80118318    -0.24400
C1414       C  0.57367255  0.55240174  0.85188798    -0.29000
C1415       C  0.56292318  0.52042962  0.86412123     0.06600
C1416       C  0.58471660  0.50450145  0.86367128    -0.27600
H1417       H  0.60164052  0.61443308  0.82813521     0.11300
H1418       H  0.65913338  0.64316519  0.80632448     0.12400
H1419       H  0.63086204  0.47933505  0.85883071     0.11500
H1420       H  0.68753448  0.50721519  0.83603892     0.10800
H1421       H  0.73073136  0.55524051  0.80968225     0.16100
H1422       H  0.71255001  0.64239711  0.79190734     0.12100
H1423       H  0.55661812  0.56451633  0.85239886     0.14900
H1424       H  0.57599686  0.47962453  0.87309482     0.14700
C1425       C  0.88953985  0.52213305  0.79317195    -0.18200
C1426       C  0.90526903  0.50677763  0.80674984    -0.20400
C1427       C  0.92568670  0.52505178  0.82674374     0.20300
C1428       C  0.93106652  0.55956854  0.83279927    -0.03300
C1429       C  0.91550693  0.57529336  0.81890512    -0.06300
C1430       C  0.89412379  0.55612391  0.79926333     0.20600
C1431       C  0.92088772  0.60987797  0.82484614     0.18700
C1432       C  0.94215358  0.62852107  0.84451808    -0.17800
C1433       C  0.95715392  0.61271850  0.85847272    -0.20000
C1434       C  0.95148260  0.57810222  0.85291299     0.20200
C1435       C  0.96554297  0.56153657  0.86716666    -0.33100
C1436       C  0.95992744  0.52692842  0.86132820     0.00900
C1437       C  0.94035316  0.50914159  0.84092458    -0.24400
C1438       C  0.87730228  0.57101893  0.78620552    -0.29000
C1439       C  0.88192922  0.60517466  0.79216533     0.06600
C1440       C  0.90447268  0.62487558  0.81122042    -0.27600
H1441       H  0.87346345  0.50722535  0.77799448     0.11300
H1442       H  0.90111464  0.98033835  0.80166939     0.12400
H1443       H  0.94675386  0.65513044  0.84931863     0.11500
H1444       H  0.97300038  0.62749926  0.87373615     0.10800
H1445       H  0.48062459  0.57541253  0.88277969     0.16100
H1446       H  0.93550770  0.98225286  0.83637332     0.12100
H1447       H  0.86071487  0.55605000  0.77119072     0.14900
H1448       H  0.90846592  0.65135689  0.81575135     0.14700
C1449       C  0.93491911  0.78909659  0.65104795    -0.18200
C1450       C  0.95072219  0.82051628  0.63755987    -0.20400
C1451       C  0.94369685  0.84862496  0.64255815     0.20300
C1452       C  0.92006877  0.84480998  0.66110969    -0.03300
C1453       C  0.90376884  0.81294652  0.67449564    -0.06300
C1454       C  0.91158560  0.78511298  0.66965399     0.20600
C1455       C  0.88006505  0.80921539  0.69293582     0.18700
C1456       C  0.87270319  0.83710110  0.69783286    -0.17800
C1457       C  0.88913641  0.86880047  0.68474198    -0.20000
C1458       C  0.91298261  0.87298038  0.66645549     0.20200
C1459       C  0.92994279  0.90490080  0.65348829    -0.33100
C1460       C  0.95350806  0.90891491  0.63503198     0.00900
C1461       C  0.96006241  0.88059116  0.62948960    -0.24400
C1462       C  0.89638794  0.75413399  0.68373089    -0.29000
C1463       C  0.87304563  0.75053183  0.70229218     0.06600
C1464       C  0.86462706  0.77797572  0.70648099    -0.27600
H1465       H  0.94111178  0.76798988  0.64700039     0.11300
H1466       H  0.46825532  0.82283183  0.62313927     0.12400
H1467       H  0.85452490  0.83455804  0.71196947     0.11500
H1468       H  0.88331987  0.89011424  0.68898331     0.10800
H1469       H  0.92432775  0.92643000  0.65751487     0.16100
H1470       H  0.47808565  0.88368219  0.61518674     0.12100
H1471       H  0.90287173  0.73304545  0.68036899     0.14900
H1472       H  0.84686953  0.77562446  0.72085674     0.14700
C1473       C  0.67475458  0.62768397  0.65947159    -0.18200
C1474       C  0.64283415  0.61174077  0.64589020    -0.20400
C1475       C  0.61605539  0.57497864  0.64856362     0.20300
C1476       C  0.62147004  0.55412902  0.66515206    -0.03300
C1477       C  0.65392738  0.57004427  0.67854620    -0.06300
C1478       C  0.68068364  0.60706029  0.67579347     0.20600
C1479       C  0.65954767  0.54884349  0.69469195     0.18700
C1480       C  0.63268853  0.51220433  0.69755668    -0.17800
C1481       C  0.60038363  0.49659168  0.68454160    -0.20000
C1482       C  0.59453302  0.51727187  0.66829973     0.20200
C1483       C  0.56238910  0.50158556  0.65498458    -0.33100
C1484       C  0.55724035  0.52187363  0.63807478     0.00900
C1485       C  0.58409715  0.55855120  0.63488148    -0.24400
C1486       C  0.71275063  0.62270623  0.68944785    -0.29000
C1487       C  0.71857228  0.60154650  0.70549319     0.06600
C1488       C  0.69180910  0.56459743  0.70783733    -0.27600
H1489       H  0.69491299  0.65611935  0.65710887     0.11300
H1490       H  0.63907878  0.62818942  0.63330344     0.12400
H1491       H  0.63662674  0.49561450  0.70993719     0.11500
H1492       H  0.57993543  0.96831109  0.68716029     0.10800
H1493       H  0.54174413  0.97327046  0.65727011     0.16100
H1494       H  0.57995196  0.57420792  0.62185871     0.12100
H1495       H  0.73311918  0.65120248  0.68756427     0.14900
H1496       H  0.69569985  0.54807859  0.72031775     0.14700
C1497       C  0.85596076  0.50776819  0.64119656    -0.18200
C1498       C  0.84035498  0.52404034  0.65469188    -0.20400
C1499       C  0.86129332  0.55096224  0.67148605     0.20300
C1500       C  0.89827624  0.56127399  0.67476748    -0.03300
C1501       C  0.91380129  0.54446828  0.66148998    -0.06300
C1502       C  0.89268160  0.51780940  0.64444143     0.20600
C1503       C  0.95056537  0.55445452  0.66529761     0.18700
C1504       C  0.97156429  0.58123060  0.68203215    -0.17800
C1505       C  0.95636603  0.59816968  0.69492351    -0.20000
C1506       C  0.91985789  0.58837685  0.69139196     0.20200
C1507       C  0.90465667  0.60519317  0.70440704    -0.33100
C1508       C  0.86783016  0.59510240  0.70155848     0.00900
C1509       C  0.84608641  0.56771189  0.68513361    -0.24400
C1510       C  0.90879182  0.50180687  0.63103853    -0.29000
C1511       C  0.94531994  0.51159553  0.63507518     0.06600
C1512       C  0.96584843  0.53764131  0.65227290    -0.27600
H1513       H  0.83927595  0.48724852  0.62827088     0.11300
H1514       H  0.81193198  0.51568306  0.65190591     0.12400
H1515       H  0.99982141  0.58917904  0.68509298     0.11500
H1516       H  0.97315706  0.61888567  0.70772766     0.10800
H1517       H  0.92154760  0.62573261  0.71729902     0.16100
H1518       H  0.81759202  0.55957028  0.68296773     0.12100
H1519       H  0.89295152  0.48148684  0.61777580     0.14900
H1520       H  0.99411875  0.54538569  0.65515812     0.14700
C1521       C  0.52570210  0.56147848  0.51890097    -0.18200
C1522       C  0.52983969  0.56714829  0.49486009    -0.20400
C1523       C  0.51954276  0.53781563  0.47931171     0.20300
C1524       C  0.50528614  0.50250080  0.48810174    -0.03300
C1525       C  0.50136112  0.49682238  0.51236808    -0.06300
C1526       C  0.51135503  0.52642854  0.52776868     0.20600
C1527       C  0.98715150  0.96146744  0.52118109     0.18700
C1528       C  0.97721574  0.93216350  0.50564591    -0.17800
C1529       C  0.98063406  0.93770539  0.48156386    -0.20000
C1530       C  0.99437581  0.97267237  0.47266359     0.20200
C1531       C  0.99702740  0.97834625  0.44859121    -0.33100
C1532       C  0.01172966  0.51371708  0.43949913     0.00900
C1533       C  0.52284259  0.54323143  0.45514895    -0.24400
C1534       C  0.50665678  0.52050468  0.55177632    -0.29000
C1535       C  0.49226668  0.48542078  0.56089810     0.06600
C1536       C  0.98285024  0.95598097  0.54533488    -0.27600
H1537       H  0.53359374  0.58451979  0.53056584     0.11300
H1538       H  0.54083329  0.59443424  0.48842305     0.12400
H1539       H  0.96642317  0.90491925  0.51209914     0.11500
H1540       H  0.97238350  0.91460473  0.46989199     0.10800
H1541       H  0.98764061  0.95521036  0.43677460     0.16100
H1542       H  0.53300476  0.57034580  0.44891369     0.12100
H1543       H  0.51431518  0.54338345  0.56357052     0.14900
H1544       H  0.97221435  0.92881803  0.55152346     0.14700
C1545       C  0.97704649  0.43747545  0.01531376    -0.18200
C1546       C  0.97356834  0.43380815  0.99102461    -0.20400
C1547       C  0.98444998  0.46435906  0.97709184     0.20300
C1548       C  0.49927397  0.99892312  0.98770846    -0.03300
C1549       C  0.50293731  0.00267438  0.01225846    -0.06300
C1550       C  0.99163543  0.47177806  0.02609875     0.20600
C1551       C  0.51782197  0.03726609  0.02291914     0.18700
C1552       C  0.52910930  0.06786760  0.00893717    -0.17800
C1553       C  0.52565807  0.06416162  0.98461245    -0.20000
C1554       C  0.51069787  0.02979659  0.97382536     0.20200
C1555       C  0.50709112  0.02579641  0.94942997    -0.33100
C1556       C  0.49162012  0.99124635  0.93851725     0.00900
C1557       C  0.98094701  0.46078433  0.95272871    -0.24400
C1558       C  0.99510354  0.47564930  0.05045394    -0.29000
C1559       C  0.50992314  0.01005358  0.06145976     0.06600
C1560       C  0.52119559  0.04080907  0.04734825    -0.27600
H1561       H  0.96831846  0.41345001  0.02566883     0.11300
H1562       H  0.96223001  0.40699663  0.98312942     0.12400
H1563       H  0.54063474  0.09465736  0.01679675     0.11500
H1564       H  0.53463491  0.08822226  0.97423245     0.10800
H1565       H  0.51651377  0.04970207  0.93881120     0.16100
H1566       H  0.97085276  0.43405682  0.94520727     0.12100
H1567       H  0.98616988  0.45174043  0.06098937     0.14900
H1568       H  0.53232968  0.06749639  0.05482207     0.14700
C1569       C  0.56009239  0.90129622  0.36435021    -0.18200
C1570       C  0.57596752  0.88546128  0.35081429    -0.20400
C1571       C  0.59297191  0.90086343  0.32956722     0.20300
C1572       C  0.59442237  0.93289035  0.32206296    -0.03300
C1573       C  0.57812523  0.94867522  0.33561126    -0.06300
C1574       C  0.56082973  0.93273747  0.35682115     0.20600
C1575       C  0.57904685  0.98031461  0.32788278     0.18700
C1576       C  0.59652786  0.99606865  0.30681691    -0.17800
C1577       C  0.61290454  0.98059362  0.29347876    -0.20000
C1578       C  0.61191110  0.94901339  0.30093229     0.20200
C1579       C  0.62776025  0.93306463  0.28748842    -0.33100
C1580       C  0.62567381  0.90071018  0.29454019     0.00900
C1581       C  0.60825912  0.88469881  0.31559163    -0.24400
C1582       C  0.54459914  0.94851544  0.37014029    -0.29000
C1583       C  0.54557949  0.98020290  0.36263181     0.06600
C1584       C  0.56271404  0.99579795  0.34140928    -0.27600
H1585       H  0.54707254  0.88884363  0.38065999     0.11300
H1586       H  0.57481230  0.86105279  0.35693250     0.12400
H1587       H  0.59772573  0.52056074  0.30068280     0.11500
H1588       H  0.62619838  0.99323256  0.27724491     0.10800
H1589       H  0.64094474  0.94534740  0.27113425     0.16100
H1590       H  0.60685587  0.85989339  0.32111658     0.12100
H1591       H  0.53095788  0.93591366  0.38628125     0.14900
H1592       H  0.56434265  0.52069598  0.33567309     0.14700
C1593       C  0.85643068  0.99170931  0.35817380    -0.18200
C1594       C  0.82477197  0.97640068  0.34432177    -0.20400
C1595       C  0.81824208  0.94968823  0.32733455     0.20300
C1596       C  0.84417687  0.93862760  0.32422156    -0.03300
C1597       C  0.87629127  0.95442326  0.33789021    -0.06300
C1598       C  0.88233424  0.98086466  0.35512140     0.20600
C1599       C  0.90236076  0.94367567  0.33427556     0.18700
C1600       C  0.89604008  0.91711434  0.31734069    -0.17800
C1601       C  0.86408080  0.90115615  0.30406350    -0.20000
C1602       C  0.83811555  0.91174795  0.30739979     0.20200
C1603       C  0.80625545  0.89584778  0.29405303    -0.33100
C1604       C  0.78014617  0.90652786  0.29682435     0.00900
C1605       C  0.78639610  0.93378181  0.31339530    -0.24400
C1606       C  0.91420792  0.99591561  0.36886962    -0.29000
C1607       C  0.94026950  0.98541311  0.36501657     0.06600
C1608       C  0.93432537  0.95959771  0.34765318    -0.27600
H1609       H  0.86062298  0.51200941  0.37128058     0.11300
H1610       H  0.80529868  0.98532524  0.34698699     0.12400
H1611       H  0.91577613  0.90857661  0.31441883     0.11500
H1612       H  0.85970572  0.88056652  0.29112186     0.10800
H1613       H  0.80216126  0.87536794  0.28107763     0.16100
H1614       H  0.76652124  0.94231307  0.31553775     0.12100
H1615       H  0.91906574  0.51611770  0.38224798     0.14900
H1616       H  0.95444292  0.95148550  0.34485187     0.14700
C1617       C  0.65039801  0.71400408  0.35111103    -0.18200
C1618       C  0.63478283  0.68244994  0.36448622    -0.20400
C1619       C  0.60034724  0.65263144  0.35862408     0.20300
C1620       C  0.58132054  0.65476414  0.33921611    -0.03300
C1621       C  0.59684230  0.68675301  0.32593248    -0.06300
C1622       C  0.63174642  0.71644980  0.33174943     0.20600
C1623       C  0.57754352  0.68885158  0.30670596     0.18700
C1624       C  0.54315409  0.65908335  0.30077610    -0.17800
C1625       C  0.52797026  0.62730536  0.31377256    -0.20000
C1626       C  0.54682530  0.62486692  0.33298190     0.20200
C1627       C  0.53176243  0.59304540  0.34604282    -0.33100
C1628       C  0.55046313  0.59070606  0.36541641     0.00900
C1629       C  0.58467547  0.62067072  0.37171528    -0.24400
C1630       C  0.64741989  0.74780016  0.31795002    -0.29000
C1631       C  0.62815961  0.74997343  0.29879328     0.06600
C1632       C  0.59310149  0.72047792  0.29350089    -0.27600
H1633       H  0.67714793  0.73652023  0.35590686     0.11300
H1634       H  0.64975371  0.68127833  0.37933034     0.12400
H1635       H  0.52810185  0.66030305  0.28599530     0.11500
H1636       H  0.50145074  0.60459955  0.30878216     0.10800
H1637       H  0.50509673  0.57027496  0.34135953     0.16100
H1638       H  0.59933930  0.61886762  0.38653592     0.12100
H1639       H  0.67446769  0.77041357  0.32207974     0.14900
H1640       H  0.57826663  0.72165716  0.27855897     0.14700
C1641       C  0.52304291  0.90194980  0.17624899    -0.18200
C1642       C  0.53829904  0.88522205  0.18885569    -0.20400
C1643       C  0.57580216  0.89770801  0.18730038     0.20300
C1644       C  0.59809278  0.92672325  0.17246693    -0.03300
C1645       C  0.58256376  0.94326362  0.15942059    -0.06300
C1646       C  0.54498097  0.93116688  0.16166247     0.20600
C1647       C  0.60470690  0.97223422  0.14444964     0.18700
C1648       C  0.64214412  0.98433251  0.14269622    -0.17800
C1649       C  0.65766013  0.96834984  0.15597738    -0.20000
C1650       C  0.63595058  0.93968753  0.17105937     0.20200
C1651       C  0.65147443  0.92438692  0.18519756    -0.33100
C1652       C  0.62943181  0.89602847  0.20049512     0.00900
C1653       C  0.59148437  0.88232529  0.20088795    -0.24400
C1654       C  0.53002333  0.94865343  0.14942965    -0.29000
C1655       C  0.55184481  0.97734454  0.13446307     0.06600
C1656       C  0.58903137  0.98877390  0.13175080    -0.27600
H1657       H  0.49414525  0.89219745  0.17802134     0.11300
H1658       H  0.52082885  0.86287675  0.20017891     0.12400
H1659       H  0.65954498  0.00651650  0.13128917     0.11500
H1660       H  0.68672429  0.97861358  0.15458304     0.10800
H1661       H  0.68068873  0.93506882  0.18469159     0.16100
H1662       H  0.57409346  0.86048041  0.21256470     0.12100
H1663       H  0.50127241  0.93969160  0.15127745     0.14900
H1664       H  0.60579293  0.01100809  0.12018878     0.14700
C1665       C  0.82454240  0.86699654  0.15887097    -0.18200
C1666       C  0.85631484  0.88255656  0.14524054    -0.20400
C1667       C  0.88305353  0.91943036  0.14806187     0.20300
C1668       C  0.87772417  0.94083664  0.16481715    -0.03300
C1669       C  0.84540618  0.92529504  0.17825844    -0.06300
C1670       C  0.81871001  0.88811681  0.17539362     0.20600
C1671       C  0.83989237  0.94700989  0.19459001     0.18700
C1672       C  0.86667505  0.98379294  0.19759781    -0.17800
C1673       C  0.89887318  0.99904010  0.18455020    -0.20000
C1674       C  0.90465343  0.97782326  0.16812875     0.20200
C1675       C  0.93678619  0.99302065  0.15486655    -0.33100
C1676       C  0.94189245  0.97207573  0.13786113     0.00900
C1677       C  0.91496527  0.93536187  0.13442944    -0.24400
C1678       C  0.78679723  0.87281117  0.18912556    -0.29000
C1679       C  0.78107731  0.89452187  0.20529436     0.06600
C1680       C  0.80780108  0.93160875  0.20777188    -0.27600
H1681       H  0.80443540  0.83845531  0.15640195     0.11300
H1682       H  0.86001976  0.86569680  0.13251874     0.12400
H1683       H  0.86277838  0.00077209  0.21013366     0.11500
H1684       H  0.91902273  0.52729964  0.18718988     0.10800
H1685       H  0.95730495  0.52127212  0.15726678     0.16100
H1686       H  0.91912194  0.91923275  0.12134608     0.12100
H1687       H  0.76645146  0.84422984  0.18716644     0.14900
H1688       H  0.80402292  0.94856934  0.22040375     0.14700
C1689       C  0.62782289  0.65845477  0.20096111    -0.18200
C1690       C  0.61184486  0.62622667  0.18770952    -0.20400
C1691       C  0.58623652  0.62000571  0.17024705     0.20300
C1692       C  0.57658085  0.64652899  0.16613471    -0.03300
C1693       C  0.59239878  0.67888660  0.17970533    -0.06300
C1694       C  0.61827421  0.68489228  0.19707893     0.20600
C1695       C  0.58231031  0.70517046  0.17589125     0.18700
C1696       C  0.55669875  0.69890747  0.15841188    -0.15400
C1697       C  0.54141777  0.66708396  0.14472843    -0.20000
C1698       C  0.55119714  0.64077751  0.14843298     0.20200
C1699       C  0.53613554  0.60888199  0.13472410    -0.33100
C1700       C  0.54556523  0.58236182  0.13879677     0.00900
C1701       C  0.57029695  0.58787259  0.15672764    -0.24400
C1702       C  0.63407556  0.71715255  0.21034878    -0.29000
C1703       C  0.62407829  0.74347492  0.20681217     0.06600
C1704       C  0.59797309  0.73717510  0.18961978    -0.27600
H1705       H  0.64761533  0.66267292  0.21429464     0.11300
H1706       H  0.61963090  0.60622663  0.19105751     0.12400
H1707       H  0.54860307  0.71872796  0.15523647     0.11500
H1708       H  0.02168435  0.66288132  0.13133668     0.10800
H1709       H  0.01660760  0.60433911  0.12106526     0.16100
H1710       H  0.57777511  0.56754046  0.15973658     0.12100
H1711       H  0.65377915  0.72144120  0.22377880     0.14900
H1712       H  0.59001053  0.75720762  0.18685351     0.14700
loop_ 
_geom_bond_atom_site_label_1 
_geom_bond_atom_site_label_2 
_geom_bond_distance 
_geom_bond_site_symmetry_2 
_ccdc_geom_bond_type 
O1           C16   1.263       .  A
O1           Al9   1.914       .  S
C2           O12   1.264       .  A
C2            O3   1.260       .  A
C2          C395   1.483       .  S
O3           Al5   1.894       .  S
O4            C6   1.264       .  A
O4           Al5   1.916       .  S
Al5          O13   1.921       .  S
Al5          O15   1.902       .  S
Al5          O14   1.790       .  S
C6           O19   1.262       .  A
C6          C368   1.485       .  S
O7           C17   1.265       .  A
O7           Al9   1.913       .  S
O8           C21   1.263       .  A
O8          Al18   1.918       .  S
Al9          O22   1.899       .  S
Al9          O19   1.902       .  S
Al9          O14   1.784       .  S
O10          C17   1.262       .  A
O10         Al18   1.902       .  S
O11          C20   1.261       .  A
O11         Al18   1.889       .  S
O12         Al18   1.920       .  S
O13          C20   1.264       .  A
O14         Al18   1.785       .  S
O15          C16   1.260       .  A
C16         C296   1.475       .  S
C17         C419   1.482       .  S
C20         C320   1.481       .  S
C21          O22   1.260       .  A
C21         C347   1.480       .  S
C23          C24   1.541       .  S
C23         C457   1.547       .  S
C23         C883   1.541   1_455  S
C23         C275   1.532       .  S
C24          H31   1.086       .  S
C24          C25   1.365       .  D
C25          C26   1.537       .  S
C25         C371   1.478       .  S
C26         C458   1.535       .  S
C26         C884   1.535   1_455  S
C26         H460   1.111       .  S
C27         C879   1.541       .  S
C27          H33   1.086       .  S
C27          C28   1.364       .  D
C28         C882   1.535       .  S
C28         C392   1.478       .  S
C29         C451   1.547       .  S
C29          H34   1.078       .  S
C29          C30   1.366       .  D
C30         C454   1.535       .  S
C30         C416   1.481       .  S
H32         C454   1.111       .  S
C35         C892   1.546       .  S
C35        C1325   1.536   1_545  S
C35         C467   1.537       .  S
C35         C248   1.522       .  S
C36         C891   1.546       .  S
C36          H43   1.081       .  S
C36          C37   1.369       .  D
C37         C894   1.538       .  S
C37         C344   1.483       .  S
C38         C893   1.538       .  S
C38        C1326   1.540   1_545  S
C38         C468   1.535       .  S
C38          H44   1.110       .  S
C39         C463   1.537       .  S
C39          H45   1.086       .  S
C39          C40   1.361       .  D
C40         C466   1.535       .  S
C40         C323   1.474       .  S
C41        C1319   1.536       .  S
C41          H46   1.086       .  S
C41          C42   1.364       .  D
C42        C1322   1.540       .  S
C42         C299   1.487       .  S
O47          C62   1.263       .  A
O47         Al55   1.914       .  S
C48          O58   1.264       .  A
C48          O49   1.264       .  A
C48         C203   1.485       .  S
O49         Al51   1.912       .  S
O50          C52   1.263       .  A
O50         Al51   1.915       .  S
Al51         O59   1.917       .  S
Al51         O61   1.916       .  S
Al51         O60   1.789       .  S
C52          O65   1.262       .  A
C52         C224   1.481       .  S
O53          C63   1.263       .  A
O53         Al55   1.915       .  S
O54          C67   1.263       .  A
O54         Al64   1.910       .  S
Al55         O68   1.911       .  S
Al55         O65   1.895       .  S
Al55         O60   1.784       .  S
O56          C63   1.259       .  A
O56         Al64   1.894       .  S
O57          C66   1.259       .  A
O57         Al64   1.886       .  S
O58         Al64   1.913       .  S
O59          C66   1.264       .  A
O60         Al64   1.785       .  S
O61          C62   1.264       .  A
C62         C155   1.484       .  S
C63         C179   1.479       .  S
C66         C128   1.481       .  S
C67          O68   1.263       .  A
C67         C107   1.484       .  S
C69         C926   1.547       .  S
C69        C1359   1.546       .  S
C69         C501   1.537   1_655  S
C69         C272   1.533       .  S
C70         C925   1.547       .  S
C70          H77   1.082       .  S
C70          C71   1.363       .  D
C71         C928   1.535       .  S
C71         C104   1.480       .  S
C72         C927   1.536       .  S
C72        C1360   1.541       .  S
C72         C502   1.530   1_655  S
C72          H78   1.111       .  S
C73         C497   1.537   1_445  S
C73          H79   1.087       .  S
C73          C74   1.361       .  D
C74         C500   1.530   1_445  S
C74         C131   1.469       .  S
C75        C1353   1.546   1_545  S
C75          H80   1.086       .  S
C75          C76   1.371       .  D
C76        C1356   1.541   1_545  S
C76         C152   1.490       .  S
C81          C85   1.539   1_665  S
C81         C938   1.541       .  S
C81        C1371   1.546       .  S
C81         C251   1.523       .  S
C82         C937   1.541       .  S
C82          H89   1.086   1_565  S
C82          C83   1.363       .  D
C83        C1368   1.536       .  S
C83         C227   1.475   1_565  S
C84        C1367   1.536       .  S
C84         C944   1.536       .  S
C84         C514   1.535   1_655  S
C84          H90   1.111       .  S
C85          H91   1.087       .  S
C85          C86   1.361       .  D
C86         C512   1.535   1_445  S
C86         C200   1.478       .  S
C87        C1365   1.546       .  S
C87          H92   1.080       .  S
C87          C88   1.366       .  D
C88         C940   1.536       .  S
C88         C176   1.480       .  S
C93          C94   1.399       .  A
C93          C98   1.404       .  A
C93         H109   1.083       .  S
C94          C95   1.403       .  A
C94         H966   1.083       .  S
C95         C105   1.403       .  A
C95          C96   1.413       .  A
C96         C102   1.411       .  A
C96          C97   1.413       .  A
C97          C99   1.412       .  A
C97          C98   1.410       .  A
C98         C106   1.401       .  A
C99         C108   1.407       .  A
C99         C100   1.404       .  A
C100        C101   1.401       .  A
C100        H111   1.083       .  S
C101        C102   1.404       .  A
C101        H112   1.084       .  S
C102        C103   1.405       .  A
C103        C104   1.406       .  A
C103        H113   1.084       .  S
C104        C105   1.403       .  A
C105        H970   1.084       .  S
C106        C107   1.409       .  A
C106        H115   1.084       .  S
C107        C108   1.407       .  A
C108        H116   1.084       .  S
H110        C950   1.084   1_455  S
H114        C961   1.084   1_455  S
C117        C118   1.397       .  A
C117        C122   1.402       .  A
C117        H133   1.084       .  S
C118        C119   1.404       .  A
C118        H134   1.083       .  S
C119        C129   1.396       .  A
C119        C120   1.408       .  A
C120        C126   1.414       .  A
C120        C121   1.411       .  A
C121        C123   1.412       .  A
C121        C122   1.414       .  A
C122        C130   1.400       .  A
C123        C132   1.404       .  A
C123        C124   1.404       .  A
C124        C125   1.400       .  A
C124        H135   1.083   1_545  S
C125        C126   1.404       .  A
C125        H136   1.084       .  S
C126        C127   1.407       .  A
C127        C128   1.406       .  A
C127        H137   1.084       .  S
C128        C129   1.410       .  A
C129        H138   1.084       .  S
C130        C131   1.400       .  A
C130        H139   1.086       .  S
C131        C132   1.403       .  A
C132        H140   1.084   1_545  S
C141        C142   1.399       .  A
C141        C146   1.403       .  A
C141        H157   1.084       .  S
C142        C143   1.403       .  A
C142        H586   1.083   1_545  S
C143        C153   1.404       .  A
C143        C144   1.412       .  A
C144        C150   1.411       .  A
C144        C145   1.415       .  A
C145        C147   1.413       .  A
C145        C146   1.410       .  A
C146        C154   1.402       .  A
C147        C156   1.410       .  A
C147        C148   1.405       .  A
C148        C149   1.403       .  A
C148        H159   1.083       .  S
C149        C150   1.405       .  A
C149        H160   1.084       .  S
C150        C151   1.409       .  A
C151        C152   1.409       .  A
C151       H1017   1.084       .  S
C152        C153   1.406       .  A
C153        H590   1.083   1_545  S
C154        C155   1.408       .  A
C154        H163   1.085       .  S
C155        C156   1.408       .  A
C156        H164   1.084       .  S
H158        C570   1.083       .  S
H161       C1007   1.084       .  S
H162        C581   1.083       .  S
C165        C166   1.401       .  A
C165        C170   1.404       .  A
C165        H181   1.083       .  S
C166        C167   1.404       .  A
C166       H1038   1.083       .  S
C167        C177   1.404       .  A
C167        C168   1.411       .  A
C168        C174   1.412       .  A
C168        C169   1.411       .  A
C169        C171   1.409       .  A
C169        C170   1.413       .  A
C170        C178   1.407       .  A
C171        C180   1.397       .  A
C171        C172   1.403       .  A
C172        C173   1.397       .  A
C172        H183   1.084       .  S
C173        C174   1.402       .  A
C173        H184   1.083       .  S
C174        C175   1.400       .  A
C175        C176   1.403       .  A
C175        H185   1.084       .  S
C176        C177   1.406       .  A
C177       H1042   1.084       .  S
C178        C179   1.406       .  A
C178        H187   1.084       .  S
C179        C180   1.408       .  A
C180        H188   1.085       .  S
H182       C1022   1.083       .  S
H186       C1033   1.084       .  S
C189        C190   1.402       .  A
C189        C194   1.405       .  A
C189        H205   1.083       .  S
C190        C191   1.405       .  A
C190        H206   1.083       .  S
C191        C201   1.406       .  A
C191        C192   1.411       .  A
C192        C198   1.413       .  A
C192        C193   1.413       .  A
C193        C195   1.410       .  A
C193        C194   1.413       .  A
C194        C202   1.409       .  A
C195        C204   1.399       .  A
C195        C196   1.403       .  A
C196        C197   1.397   1_545  A
C196        H207   1.084   1_545  S
C197        C198   1.402   1_565  A
C197        H636   1.084       .  S
C198        C199   1.401       .  A
C199        C200   1.402       .  A
C199        H637   1.085   1_545  S
C200        C201   1.407       .  A
C201        H210   1.084       .  S
C202        C203   1.409       .  A
C202        H211   1.084       .  S
C203        C204   1.408       .  A
C204        H212   1.084       .  S
H208        C625   1.084       .  S
H209        C627   1.085       .  S
C213        C214   1.404       .  A
C213        C218   1.406       .  A
C213        H229   1.083   1_545  S
C214        C215   1.405       .  A
C214        H230   1.084       .  S
C215        C225   1.411       .  A
C215        C216   1.414       .  A
C216        C222   1.409       .  A
C216        C217   1.411       .  A
C217        C219   1.413       .  A
C217        C218   1.411       .  A
C218        C226   1.408       .  A
C219        C228   1.396       .  A
C219        C220   1.400       .  A
C220        C221   1.394       .  A
C220        H231   1.084       .  S
C221        C222   1.402       .  A
C221        H232   1.083       .  S
C222        C223   1.394       .  A
C223        C224   1.407       .  A
C223        H233   1.084       .  S
C224        C225   1.409       .  A
C225        H234   1.084       .  S
C226        C227   1.408       .  A
C226        H235   1.084   1_545  S
C227        C228   1.399       .  A
C228        H236   1.085       .  S
C237        C238   1.397       .  A
C237        C242   1.402       .  A
C237        H253   1.084       .  S
C238        C239   1.403       .  A
C238        H254   1.083       .  S
C239        C249   1.402       .  A
C239        C240   1.411       .  A
C240        C241   1.410   1_545  A
C240       C1530   1.408   1_445  A
C241        C242   1.408   1_565  A
C241       C1527   1.411   1_455  A
C242        C250   1.397       .  A
C243        C252   1.403       .  A
C243        C244   1.404       .  A
C243       C1525   1.411       .  A
C244        C245   1.398       .  A
C244        H255   1.083       .  S
C245        C246   1.403       .  A
C245        H256   1.084       .  S
C246        C247   1.398       .  A
C246       C1524   1.408       .  A
C247        C676   1.411       .  A
C247        H257   1.085       .  S
C248        C675   1.411   1_545  A
C248       C1105   1.409       .  A
C249       C1104   1.409       .  A
C249        H258   1.077       .  S
C250        C251   1.409   1_445  A
C250        H259   1.085       .  S
C251       C1536   1.411       .  A
C252       C1535   1.411       .  A
C252        H260   1.076       .  S
C261        C262   1.398   1_554  A
C261        C266   1.403       .  A
C261        H277   1.084       .  S
C262        C263   1.404       .  A
C262        H278   1.084       .  S
C263        C273   1.403       .  A
C263       C1548   1.409       .  A
C264        C270   1.410   1_655  A
C264        C265   1.414   1_656  A
C264       C1547   1.409       .  A
C265        C267   1.409       .  A
C265       C1550   1.410   1_455  A
C266        C274   1.402       .  A
C266       C1549   1.410   1_565  A
C267        C276   1.406       .  A
C267        C268   1.405       .  A
C268        C269   1.400   1_554  A
C268        H279   1.082       .  S
C269        C270   1.404       .  A
C269        H280   1.084       .  S
C270        C271   1.405       .  A
C271        C272   1.412   1_455  A
C271        H281   1.084       .  S
C272       C1557   1.414       .  A
C273       C1556   1.414       .  A
C273        H282   1.078       .  S
C274       C1559   1.410   1_565  A
C274        H283   1.084       .  S
C275        C276   1.415       .  A
C275       C1558   1.410   1_455  A
C276        H284   1.071       .  S
C285        C286   1.400       .  A
C285        C290   1.404       .  A
C285        H301   1.083       .  S
C286        C287   1.403       .  A
C286        H302   1.084       .  S
C287        C297   1.406       .  A
C287        C288   1.414       .  A
C288        C294   1.410       .  A
C288        C289   1.412       .  A
C289        C291   1.412       .  A
C289        C290   1.410       .  A
C290        C298   1.402       .  A
C291        C300   1.403       .  A
C291        C292   1.403       .  A
C292        C293   1.398       .  A
C292        H731   1.083       .  S
C293        C294   1.404       .  A
C293        H304   1.084       .  S
C294        C295   1.400       .  A
C295        C296   1.407       .  A
C295        H305   1.085       .  S
C296        C297   1.404       .  A
C297        H306   1.085       .  S
C298        C299   1.409       .  A
C298        H307   1.083       .  S
C299        C300   1.405       .  A
C300        H736   1.084       .  S
H303        C720   1.083   1_545  S
H308        C728   1.084   1_545  S
C309        C310   1.403       .  A
C309        C314   1.406       .  A
C309        H753   1.083       .  S
C310        C311   1.405       .  A
C310        H326   1.084       .  S
C311        C321   1.411       .  A
C311        C312   1.414       .  A
C312        C318   1.408       .  A
C312        C313   1.411       .  A
C313        C315   1.413       .  A
C313        C314   1.411       .  A
C314        C322   1.407       .  A
C315        C324   1.397       .  A
C315        C316   1.400       .  A
C316        C317   1.394       .  A
C316        H327   1.084       .  S
C317        C318   1.402       .  A
C317        H328   1.083       .  S
C318        C319   1.393       .  A
C319        C320   1.407       .  A
C319        H329   1.084       .  S
C320        C321   1.408       .  A
C321        H330   1.084       .  S
C322        C323   1.407       .  A
C322        H759   1.084       .  S
C323        C324   1.399       .  A
C324        H332   1.085       .  S
H325        C737   1.083   1_545  S
H331        C750   1.084   1_545  S
C333        C334   1.401       .  A
C333        C338   1.404       .  A
C333        H349   1.084       .  S
C334        C335   1.405       .  A
C334        H350   1.083       .  S
C335        C345   1.405       .  A
C335        C336   1.411       .  A
C336        C342   1.412       .  A
C336        C337   1.412       .  A
C337        C339   1.409       .  A
C337        C338   1.414       .  A
C338        C346   1.409       .  A
C339        C348   1.398       .  A
C339        C340   1.404       .  A
C340        C341   1.397       .  A
C340        H351   1.083       .  S
C341        C342   1.402       .  A
C341        H352   1.084       .  S
C342        C343   1.401       .  A
C343        C344   1.404       .  A
C343        H353   1.085       .  S
C344        C345   1.407       .  A
C345        H354   1.084       .  S
C346        C347   1.406       .  A
C346        H355   1.085       .  S
C347        C348   1.408       .  A
C348        H356   1.084       .  S
C357        C358   1.397       .  A
C357        C362   1.402       .  A
C357        H373   1.083   1_455  S
C358        C359   1.403       .  A
C358        H374   1.085       .  S
C359        C369   1.398       .  A
C359        C360   1.409       .  A
C360        C366   1.413       .  A
C360        C361   1.413       .  A
C361        C363   1.412       .  A
C361        C362   1.413       .  A
C362        C370   1.401       .  A
C363        C372   1.407       .  A
C363        C364   1.405       .  A
C364        C365   1.402       .  A
C364        H375   1.083       .  S
C365        C366   1.405       .  A
C365        H376   1.083       .  S
C366        C367   1.409       .  A
C367        C368   1.408       .  A
C367        H377   1.084       .  S
C368        C369   1.409       .  A
C369        H378   1.085       .  S
C370        C371   1.402       .  A
C370        H379   1.084       .  S
C371        C372   1.406       .  A
C372        H380   1.084       .  S
C381        C382   1.402       .  A
C381        C386   1.404       .  A
C381        H397   1.083       .  S
C382        C383   1.405       .  A
C382        H398   1.083       .  S
C383        C393   1.406       .  A
C383        C384   1.411       .  A
C384        C390   1.413       .  A
C384        C385   1.413       .  A
C385        C387   1.409       .  A
C385        C386   1.414       .  A
C386        C394   1.410       .  A
C387        C396   1.398       .  A
C387        C388   1.403       .  A
C388        C389   1.397       .  A
C388        H399   1.084       .  S
C389        C390   1.402       .  A
C389        H828   1.083       .  S
C390        C391   1.402       .  A
C391        C392   1.402       .  A
C391        H829   1.084       .  S
C392        C393   1.406       .  A
C393        H402   1.084       .  S
C394        C395   1.407       .  A
C394        H403   1.084       .  S
C395        C396   1.409       .  A
C396        H404   1.085       .  S
H400        C817   1.083   1_545  S
H401        C819   1.084   1_545  S
C405        C406   1.399       .  A
C405        C410   1.404       .  A
C405        H421   1.083       .  S
C406        C407   1.403       .  A
C406        H422   1.083       .  S
C407        C417   1.404       .  A
C407        C408   1.413       .  A
C408        C414   1.411       .  A
C408        C409   1.413       .  A
C409        C411   1.413       .  A
C409        C410   1.409       .  A
C410        C418   1.400       .  A
C411        C420   1.407       .  A
C411        C412   1.403       .  A
C412        C413   1.400       .  A
C412        H423   1.084       .  S
C413        C414   1.404       .  A
C413       H1280   1.083       .  S
C414        C415   1.403       .  A
C415        C416   1.406       .  A
C415       H1281   1.084       .  S
C416        C417   1.404       .  A
C417        H426   1.084       .  S
C418        C419   1.410       .  A
C418        H427   1.084       .  S
C419        C420   1.406       .  A
C420        H428   1.084       .  S
H424       C1269   1.083       .  S
H425       C1271   1.084       .  S
O429        C444   1.263       .  A
O429       Al437   1.914       .  S
C430        O440   1.264       .  A
C430        O431   1.260       .  A
C430        C823   1.483       .  S
O431       Al433   1.894       .  S
O432        C434   1.264       .  A
O432       Al433   1.916       .  S
Al433       O441   1.921       .  S
Al433       O443   1.902       .  S
Al433       O442   1.790       .  S
C434        O447   1.262       .  A
C434        C796   1.485       .  S
O435        C445   1.264       .  A
O435       Al437   1.913       .  S
O436        C449   1.263       .  A
O436       Al446   1.918       .  S
Al437       O450   1.898       .  S
Al437       O447   1.902       .  S
Al437       O442   1.784       .  S
O438        C445   1.262       .  A
O438       Al446   1.902       .  S
O439        C448   1.261       .  A
O439       Al446   1.889       .  S
O440       Al446   1.920       .  S
O441        C448   1.264       .  A
O442       Al446   1.785       .  S
O443        C444   1.260       .  A
C444        C724   1.475       .  S
C445        C847   1.482       .  S
C448        C748   1.481       .  S
C449        O450   1.260       .  A
C449        C775   1.480       .  S
C451        C452   1.541   1_545  S
C451       C1311   1.541   1_445  S
C451        C703   1.532       .  S
C452        H459   1.086       .  S
C452        C453   1.365       .  D
C453        C454   1.537   1_565  S
C453        C799   1.477       .  S
C454       C1312   1.535   1_445  S
C455       C1307   1.541   1_565  S
C455        H461   1.086       .  S
C455        C456   1.364       .  D
C456       C1310   1.535   1_565  S
C456        C820   1.478       .  S
C457        H462   1.078       .  S
C457        C458   1.366       .  D
C458        C844   1.481       .  S
C463       C1320   1.546       .  S
C463        C897   1.536       .  S
C463        C676   1.522       .  S
C464       C1319   1.546       .  S
C464        H471   1.081       .  S
C464        C465   1.369       .  D
C465       C1322   1.539       .  S
C465        C772   1.482       .  S
C466       C1321   1.539       .  S
C466        C898   1.540       .  S
C466        H472   1.110       .  S
C467        H473   1.086   1_545  S
C467        C468   1.361       .  D
C468        C751   1.474   1_545  S
C469        C891   1.536   1_565  S
C469        H474   1.086       .  S
C469        C470   1.363       .  D
C470        C894   1.540   1_565  S
C470        C727   1.486       .  S
O475        C490   1.263       .  A
O475       Al483   1.914       .  S
C476        O486   1.264       .  A
C476        O477   1.264       .  A
C476        C631   1.485       .  S
O477       Al479   1.912       .  S
O478        C480   1.263       .  A
O478       Al479   1.915       .  S
Al479       O487   1.916       .  S
Al479       O489   1.917       .  S
Al479       O488   1.789       .  S
C480        O493   1.262       .  A
C480        C652   1.481       .  S
O481        C491   1.263       .  A
O481       Al483   1.915       .  S
O482        C495   1.263       .  A
O482       Al492   1.910       .  S
Al483       O496   1.911       .  S
Al483       O493   1.896       .  S
Al483       O488   1.784       .  S
O484        C491   1.259       .  A
O484       Al492   1.895       .  S
O485        C494   1.259       .  A
O485       Al492   1.887       .  S
O486       Al492   1.913       .  S
O487        C494   1.264       .  A
O488       Al492   1.785       .  S
O489        C490   1.264       .  A
C490        C583   1.484       .  S
C491        C607   1.479       .  S
C494        C556   1.480       .  S
C495        O496   1.263       .  A
C495        C535   1.484       .  S
C497       C1354   1.547       .  S
C497        C931   1.546   1_565  S
C497        C700   1.533       .  S
C498       C1353   1.547       .  S
C498        H505   1.082       .  S
C498        C499   1.363       .  D
C499       C1356   1.535       .  S
C499        C532   1.480       .  S
C500       C1355   1.535       .  S
C500        C932   1.541   1_565  S
C500        H506   1.111       .  S
C501        H507   1.087       .  S
C501        C502   1.361       .  D
C502        C559   1.469       .  S
C503        C925   1.546       .  S
C503        H508   1.086       .  S
C503        C504   1.372       .  D
C504        C928   1.541       .  S
C504        C580   1.490       .  S
C509       C1366   1.541       .  S
C509        C943   1.546       .  S
C509        C513   1.538   1_655  S
C509        C679   1.523       .  S
C510       C1365   1.541       .  S
C510        H517   1.086       .  S
C510        C511   1.363       .  D
C511        C940   1.536       .  S
C511        C655   1.475       .  S
C512        C939   1.536       .  S
C512       C1372   1.536       .  S
C512        H518   1.111       .  S
C513        H519   1.087       .  S
C513        C514   1.361       .  D
C514        C628   1.478       .  S
C515        C937   1.546       .  S
C515        H520   1.080       .  S
C515        C516   1.366       .  D
C516       C1368   1.536       .  S
C516        C604   1.480       .  S
C521        C522   1.399       .  A
C521        C526   1.404       .  A
C521        H537   1.083       .  S
C522        C523   1.403       .  A
C522       H1394   1.084       .  S
C523        C533   1.403       .  A
C523        C524   1.413       .  A
C524        C530   1.411       .  A
C524        C525   1.413       .  A
C525        C527   1.412       .  A
C525        C526   1.410       .  A
C526        C534   1.401       .  A
C527        C536   1.407       .  A
C527        C528   1.404       .  A
C528        C529   1.401       .  A
C528        H539   1.083       .  S
C529        C530   1.404       .  A
C529        H540   1.084       .  S
C530        C531   1.405       .  A
C531        C532   1.406       .  A
C531        H541   1.084       .  S
C532        C533   1.403       .  A
C533       H1398   1.084       .  S
C534        C535   1.409       .  A
C534        H543   1.084       .  S
C535        C536   1.408       .  A
C536        H544   1.084       .  S
H538       C1378   1.084   1_455  S
H542       C1389   1.084   1_455  S
C545        C546   1.397       .  A
C545        C550   1.402       .  A
C545        H561   1.084       .  S
C546        C547   1.404       .  A
C546        H562   1.083       .  S
C547        C557   1.397       .  A
C547        C548   1.409       .  A
C548        C554   1.413       .  A
C548        C549   1.411       .  A
C549        C551   1.412       .  A
C549        C550   1.414       .  A
C550        C558   1.400       .  A
C551        C560   1.403       .  A
C551        C552   1.404       .  A
C552        C553   1.400       .  A
C552        H563   1.083       .  S
C553        C554   1.404       .  A
C553        H564   1.084       .  S
C554        C555   1.407       .  A
C555        C556   1.406       .  A
C555        H565   1.084       .  S
C556        C557   1.409       .  A
C557        H566   1.084       .  S
C558        C559   1.400       .  A
C558        H567   1.086       .  S
C559        C560   1.403       .  A
C560        H568   1.084       .  S
C569        C570   1.399       .  A
C569        C574   1.404       .  A
C569        H585   1.084       .  S
C570        C571   1.403       .  A
C571        C581   1.404       .  A
C571        C572   1.412       .  A
C572        C578   1.411       .  A
C572        C573   1.415       .  A
C573        C575   1.413       .  A
C573        C574   1.410       .  A
C574        C582   1.402       .  A
C575        C584   1.410       .  A
C575        C576   1.405       .  A
C576        C577   1.403       .  A
C576        H587   1.083       .  S
C577        C578   1.405       .  A
C577        H588   1.084       .  S
C578        C579   1.409       .  A
C579        C580   1.409       .  A
C579       H1445   1.084       .  S
C580        C581   1.406       .  A
C582        C583   1.408       .  A
C582        H591   1.085       .  S
C583        C584   1.408       .  A
C584        H592   1.084       .  S
H589       C1435   1.084       .  S
C593        C594   1.401       .  A
C593        C598   1.404       .  A
C593        H609   1.083       .  S
C594        C595   1.404       .  A
C594       H1466   1.083       .  S
C595        C605   1.404       .  A
C595        C596   1.411       .  A
C596        C602   1.412       .  A
C596        C597   1.411       .  A
C597        C599   1.409       .  A
C597        C598   1.413       .  A
C598        C606   1.407       .  A
C599        C608   1.397       .  A
C599        C600   1.403       .  A
C600        C601   1.397       .  A
C600        H611   1.084       .  S
C601        C602   1.402       .  A
C601        H612   1.083       .  S
C602        C603   1.400       .  A
C603        C604   1.403       .  A
C603        H613   1.084       .  S
C604        C605   1.406       .  A
C605       H1470   1.084       .  S
C606        C607   1.406       .  A
C606        H615   1.084       .  S
C607        C608   1.408       .  A
C608        H616   1.085       .  S
H610       C1450   1.083       .  S
H614       C1461   1.084       .  S
C617        C618   1.402       .  A
C617        C622   1.405       .  A
C617        H633   1.083       .  S
C618        C619   1.405       .  A
C618        H634   1.083       .  S
C619        C629   1.406       .  A
C619        C620   1.411       .  A
C620        C626   1.413       .  A
C620        C621   1.413       .  A
C621        C623   1.410       .  A
C621        C622   1.413       .  A
C622        C630   1.409       .  A
C623        C632   1.400       .  A
C623        C624   1.403       .  A
C624        C625   1.397       .  A
C624        H635   1.084       .  S
C625        C626   1.402       .  A
C626        C627   1.401       .  A
C627        C628   1.402       .  A
C628        C629   1.407       .  A
C629        H638   1.084       .  S
C630        C631   1.409       .  A
C630        H639   1.084       .  S
C631        C632   1.408       .  A
C632        H640   1.084       .  S
C641        C642   1.404       .  A
C641        C646   1.406       .  A
C641        H657   1.083       .  S
C642        C643   1.405       .  A
C642        H658   1.084       .  S
C643        C653   1.411       .  A
C643        C644   1.414       .  A
C644        C650   1.409       .  A
C644        C645   1.411       .  A
C645        C647   1.413       .  A
C645        C646   1.411       .  A
C646        C654   1.408       .  A
C647        C656   1.396       .  A
C647        C648   1.400       .  A
C648        C649   1.394       .  A
C648        H659   1.084       .  S
C649        C650   1.402       .  A
C649        H660   1.083       .  S
C650        C651   1.394       .  A
C651        C652   1.407       .  A
C651        H661   1.084       .  S
C652        C653   1.409       .  A
C653        H662   1.084       .  S
C654        C655   1.408       .  A
C654        H663   1.084       .  S
C655        C656   1.399       .  A
C656        H664   1.085       .  S
C665        C666   1.397       .  A
C665        C670   1.402       .  A
C665        H681   1.084       .  S
C666        C667   1.403       .  A
C666        H682   1.083       .  S
C667        C677   1.402       .  A
C667        C668   1.411       .  A
C668       C1102   1.408   1_455  A
C668        C669   1.409       .  A
C669       C1099   1.411   1_455  A
C669        C670   1.408       .  A
C670        C678   1.397       .  A
C671       C1097   1.410       .  A
C671        C680   1.403       .  A
C671        C672   1.404       .  A
C672        C673   1.398       .  A
C672        H683   1.083       .  S
C673        C674   1.403       .  A
C673        H684   1.084       .  S
C674       C1096   1.408   1_565  A
C674        C675   1.398       .  A
C675        H685   1.085       .  S
C676       C1533   1.409       .  A
C677       C1532   1.409       .  A
C677        H686   1.077       .  S
C678        C679   1.409   1_455  A
C678        H687   1.085       .  S
C679       C1108   1.411       .  A
C680       C1107   1.411       .  A
C680        H688   1.075       .  S
C689        C690   1.398   1_554  A
C689        C694   1.403       .  A
C689        H705   1.084       .  S
C690        C691   1.404       .  A
C690        H706   1.084       .  S
C691        C701   1.402       .  A
C691       C1120   1.409       .  A
C692       C1119   1.409       .  A
C692        C698   1.410   1_665  A
C692        C693   1.414   1_666  A
C693        C695   1.409       .  A
C693       C1122   1.410   1_445  A
C694       C1121   1.410       .  A
C694        C702   1.402       .  A
C695        C704   1.406       .  A
C695        C696   1.405       .  A
C696        C697   1.400   1_554  A
C696        H707   1.082       .  S
C697        C698   1.404       .  A
C697        H708   1.084       .  S
C698        C699   1.405       .  A
C699        C700   1.411   1_445  A
C699        H709   1.084       .  S
C700       C1129   1.414       .  A
C701       C1128   1.414       .  A
C701        H710   1.079       .  S
C702       C1131   1.410       .  A
C702        H711   1.084       .  S
C703       C1130   1.410   1_445  A
C703        C704   1.415       .  A
C704        H712   1.071       .  S
C713        C714   1.400       .  A
C713        C718   1.404       .  A
C713        H729   1.083       .  S
C714        C715   1.403       .  A
C714        H730   1.084       .  S
C715        C725   1.406       .  A
C715        C716   1.414       .  A
C716        C722   1.410       .  A
C716        C717   1.412       .  A
C717        C719   1.412       .  A
C717        C718   1.410       .  A
C718        C726   1.402       .  A
C719        C728   1.403       .  A
C719        C720   1.403       .  A
C720        C721   1.398       .  A
C721        C722   1.404       .  A
C721        H732   1.084       .  S
C722        C723   1.400       .  A
C723        C724   1.407       .  A
C723        H733   1.085       .  S
C724        C725   1.404       .  A
C725        H734   1.085       .  S
C726        C727   1.409       .  A
C726        H735   1.083       .  S
C727        C728   1.405       .  A
C737        C738   1.403       .  A
C737        C742   1.406       .  A
C738        C739   1.405       .  A
C738        H754   1.084       .  S
C739        C749   1.411       .  A
C739        C740   1.414       .  A
C740        C746   1.408       .  A
C740        C741   1.411       .  A
C741        C743   1.413       .  A
C741        C742   1.411       .  A
C742        C750   1.407       .  A
C743        C752   1.397       .  A
C743        C744   1.400       .  A
C744        C745   1.394       .  A
C744        H755   1.084       .  S
C745        C746   1.402       .  A
C745        H756   1.083       .  S
C746        C747   1.393       .  A
C747        C748   1.407       .  A
C747        H757   1.084       .  S
C748        C749   1.408       .  A
C749        H758   1.084       .  S
C750        C751   1.407       .  A
C751        C752   1.399       .  A
C752        H760   1.085       .  S
C761        C762   1.401       .  A
C761        C766   1.404       .  A
C761        H777   1.084       .  S
C762        C763   1.405       .  A
C762        H778   1.083       .  S
C763        C773   1.405       .  A
C763        C764   1.411       .  A
C764        C770   1.412       .  A
C764        C765   1.412       .  A
C765        C767   1.409       .  A
C765        C766   1.414       .  A
C766        C774   1.409       .  A
C767        C776   1.398       .  A
C767        C768   1.404       .  A
C768        C769   1.397       .  A
C768        H779   1.083       .  S
C769        C770   1.402       .  A
C769        H780   1.084       .  S
C770        C771   1.401       .  A
C771        C772   1.404       .  A
C771        H781   1.085       .  S
C772        C773   1.407       .  A
C773        H782   1.084       .  S
C774        C775   1.406       .  A
C774        H783   1.085       .  S
C775        C776   1.408       .  A
C776        H784   1.084       .  S
C785        C786   1.397       .  A
C785        C790   1.402       .  A
C785        H801   1.083   1_455  S
C786        C787   1.403       .  A
C786        H802   1.085       .  S
C787        C797   1.398       .  A
C787        C788   1.409       .  A
C788        C794   1.413       .  A
C788        C789   1.413       .  A
C789        C791   1.412       .  A
C789        C790   1.413       .  A
C790        C798   1.401       .  A
C791        C800   1.407       .  A
C791        C792   1.405       .  A
C792        C793   1.402       .  A
C792        H803   1.083   1_565  S
C793        C794   1.405       .  A
C793        H804   1.083       .  S
C794        C795   1.409       .  A
C795        C796   1.408       .  A
C795        H805   1.084       .  S
C796        C797   1.409       .  A
C797        H806   1.085       .  S
C798        C799   1.402       .  A
C798        H807   1.084       .  S
C799        C800   1.406       .  A
C800        H808   1.084   1_565  S
C809        C810   1.402       .  A
C809        C814   1.404       .  A
C809        H825   1.083       .  S
C810        C811   1.405       .  A
C810        H826   1.083       .  S
C811        C821   1.406       .  A
C811        C812   1.411       .  A
C812        C818   1.413       .  A
C812        C813   1.413       .  A
C813        C815   1.409       .  A
C813        C814   1.414       .  A
C814        C822   1.410       .  A
C815        C824   1.398       .  A
C815        C816   1.403       .  A
C816        C817   1.397       .  A
C816        H827   1.084   1_565  S
C817        C818   1.402       .  A
C818        C819   1.402       .  A
C819        C820   1.402       .  A
C820        C821   1.406       .  A
C821        H830   1.084       .  S
C822        C823   1.407       .  A
C822        H831   1.084       .  S
C823        C824   1.409       .  A
C824        H832   1.085       .  S
C833        C834   1.399       .  A
C833        C838   1.404       .  A
C833        H849   1.083       .  S
C834        C835   1.403       .  A
C834        H850   1.083       .  S
C835        C845   1.404       .  A
C835        C836   1.413       .  A
C836        C842   1.411       .  A
C836        C837   1.413       .  A
C837        C839   1.413       .  A
C837        C838   1.409       .  A
C838        C846   1.400       .  A
C839        C848   1.407       .  A
C839        C840   1.403       .  A
C840        C841   1.400       .  A
C840        H851   1.084       .  S
C841        C842   1.404       .  A
C841       H1708   1.083       .  S
C842        C843   1.403       .  A
C843        C844   1.406       .  A
C843       H1709   1.084       .  S
C844        C845   1.404       .  A
C845        H854   1.084       .  S
C846        C847   1.410       .  A
C846        H855   1.084       .  S
C847        C848   1.406       .  A
C848        H856   1.084       .  S
H852       C1697   1.083       .  S
H853       C1699   1.084       .  S
O857        C872   1.263       .  A
O857       Al865   1.914       .  S
C858        O868   1.264       .  A
C858        O859   1.260       .  A
C858       C1251   1.483       .  S
O859       Al861   1.894       .  S
O860        C862   1.264       .  A
O860       Al861   1.916       .  S
Al861       O869   1.920       .  S
Al861       O871   1.902       .  S
Al861       O870   1.790       .  S
C862        O875   1.262       .  A
C862       C1224   1.485       .  S
O863        C873   1.265       .  A
O863       Al865   1.914       .  S
O864        C877   1.263       .  A
O864       Al874   1.918       .  S
Al865       O878   1.899       .  S
Al865       O875   1.902       .  S
Al865       O870   1.784       .  S
O866        C873   1.262       .  A
O866       Al874   1.902       .  S
O867        C876   1.261       .  A
O867       Al874   1.889       .  S
O868       Al874   1.920       .  S
O869        C876   1.264       .  A
O870       Al874   1.785       .  S
O871        C872   1.260       .  A
C872       C1152   1.475       .  S
C873       C1275   1.482       .  S
C876       C1176   1.481       .  S
C877        O878   1.260       .  A
C877       C1203   1.480       .  S
C879        C880   1.541       .  S
C879       C1313   1.547       .  S
C879       C1131   1.532       .  S
C880        H887   1.086       .  S
C880        C881   1.365       .  D
C881        C882   1.537       .  S
C881       C1227   1.478       .  S
C882       C1314   1.535       .  S
C882       H1316   1.111       .  S
C883        H889   1.086       .  S
C883        C884   1.364       .  D
C884       C1248   1.478       .  S
C885       C1307   1.547       .  S
C885        H890   1.078       .  S
C885        C886   1.366       .  D
C886       C1310   1.535       .  S
C886       C1272   1.481       .  S
H888       C1310   1.111       .  S
C891       C1323   1.537   1_455  S
C891       C1104   1.522       .  S
C892        H899   1.081       .  S
C892        C893   1.368       .  D
C893       C1200   1.483       .  S
C894       C1324   1.535   1_455  S
C894        H900   1.110       .  S
C895       C1319   1.537   1_655  S
C895        H901   1.086       .  S
C895        C896   1.361       .  D
C896       C1322   1.535   1_655  S
C896       C1179   1.474       .  S
C897        H902   1.086       .  S
C897        C898   1.363       .  D
C898       C1155   1.487       .  S
O903        C918   1.263       .  A
O903       Al911   1.914       .  S
C904        O914   1.264       .  A
C904        O905   1.264       .  A
C904       C1059   1.485       .  S
O905       Al907   1.912       .  S
O906        C908   1.263       .  A
O906       Al907   1.915       .  S
Al907       O915   1.916       .  S
Al907       O917   1.916       .  S
Al907       O916   1.789       .  S
C908        O921   1.262       .  A
C908       C1080   1.481       .  S
O909        C919   1.263       .  A
O909       Al911   1.915       .  S
O910        C923   1.263       .  A
O910       Al920   1.910       .  S
Al911       O924   1.912       .  S
Al911       O921   1.896       .  S
Al911       O916   1.784       .  S
O912        C919   1.259       .  A
O912       Al920   1.895       .  S
O913        C922   1.259       .  A
O913       Al920   1.887       .  S
O914       Al920   1.913       .  S
O915        C922   1.264       .  A
O916       Al920   1.785       .  S
O917        C918   1.264       .  A
C918       C1011   1.484       .  S
C919       C1035   1.479       .  S
C922        C984   1.480       .  S
C923        O924   1.263       .  A
C923        C963   1.484       .  S
C925       C1357   1.537       .  S
C925       C1128   1.533       .  S
C926        H933   1.082       .  S
C926        C927   1.363       .  D
C927        C960   1.480       .  S
C928       C1358   1.530       .  S
C928        H934   1.111       .  S
C929       C1353   1.537   1_545  S
C929        H935   1.087       .  S
C929        C930   1.361       .  D
C930       C1356   1.530   1_545  S
C930        C987   1.469       .  S
C931        H936   1.086       .  S
C931        C932   1.371       .  D
C932       C1008   1.490       .  S
C937        C941   1.539   1_565  S
C937       C1107   1.523       .  S
C938        H945   1.086   1_565  S
C938        C939   1.363       .  D
C939       C1083   1.475   1_565  S
C940       C1370   1.535       .  S
C940        H946   1.111       .  S
C941        H947   1.087       .  S
C941        C942   1.361       .  D
C942       C1368   1.535   1_545  S
C942       C1056   1.478       .  S
C943        H948   1.080       .  S
C943        C944   1.366       .  D
C944       C1032   1.480       .  S
C949        C950   1.399       .  A
C949        C954   1.404       .  A
C949        H965   1.083       .  S
C950        C951   1.403       .  A
C951        C961   1.403       .  A
C951        C952   1.413       .  A
C952        C958   1.411       .  A
C952        C953   1.413       .  A
C953        C955   1.412       .  A
C953        C954   1.410       .  A
C954        C962   1.401       .  A
C955        C964   1.407       .  A
C955        C956   1.404       .  A
C956        C957   1.401       .  A
C956        H967   1.083       .  S
C957        C958   1.404       .  A
C957        H968   1.084       .  S
C958        C959   1.405       .  A
C959        C960   1.406       .  A
C959        H969   1.084       .  S
C960        C961   1.403       .  A
C962        C963   1.409       .  A
C962        H971   1.084       .  S
C963        C964   1.408       .  A
C964        H972   1.084       .  S
C973        C974   1.397       .  A
C973        C978   1.402       .  A
C973        H989   1.084       .  S
C974        C975   1.404       .  A
C974        H990   1.083       .  S
C975        C985   1.397       .  A
C975        C976   1.409       .  A
C976        C982   1.413       .  A
C976        C977   1.411       .  A
C977        C979   1.412       .  A
C977        C978   1.414       .  A
C978        C986   1.400       .  A
C979        C988   1.403       .  A
C979        C980   1.404       .  A
C980        C981   1.400       .  A
C980        H991   1.083   1_545  S
C981        C982   1.403       .  A
C981        H992   1.084       .  S
C982        C983   1.407       .  A
C983        C984   1.406       .  A
C983        H993   1.084       .  S
C984        C985   1.409       .  A
C985        H994   1.084       .  S
C986        C987   1.400       .  A
C986        H995   1.085       .  S
C987        C988   1.402       .  A
C988        H996   1.084   1_545  S
C997        C998   1.399       .  A
C997       C1002   1.404       .  A
C997       H1013   1.084       .  S
C998        C999   1.403       .  A
C998       H1442   1.083   1_545  S
C999       C1009   1.404       .  A
C999       C1000   1.412       .  A
C1000      C1006   1.411       .  A
C1000      C1001   1.415       .  A
C1001      C1003   1.413       .  A
C1001      C1002   1.410       .  A
C1002      C1010   1.402       .  A
C1003      C1012   1.410       .  A
C1003      C1004   1.405       .  A
C1004      C1005   1.403       .  A
C1004      H1015   1.083       .  S
C1005      C1006   1.405       .  A
C1005      H1016   1.084       .  S
C1006      C1007   1.409       .  A
C1007      C1008   1.409       .  A
C1008      C1009   1.406       .  A
C1009      H1446   1.083   1_545  S
C1010      C1011   1.408       .  A
C1010      H1019   1.085       .  S
C1011      C1012   1.407       .  A
C1012      H1020   1.084       .  S
H1014      C1426   1.083       .  S
H1018      C1437   1.084       .  S
C1021      C1022   1.401       .  A
C1021      C1026   1.404       .  A
C1021      H1037   1.083       .  S
C1022      C1023   1.404       .  A
C1023      C1033   1.404       .  A
C1023      C1024   1.411       .  A
C1024      C1030   1.412       .  A
C1024      C1025   1.411       .  A
C1025      C1027   1.409       .  A
C1025      C1026   1.413       .  A
C1026      C1034   1.407       .  A
C1027      C1036   1.397       .  A
C1027      C1028   1.403       .  A
C1028      C1029   1.397       .  A
C1028      H1039   1.084       .  S
C1029      C1030   1.402       .  A
C1029      H1040   1.083       .  S
C1030      C1031   1.400       .  A
C1031      C1032   1.403       .  A
C1031      H1041   1.084       .  S
C1032      C1033   1.406       .  A
C1034      C1035   1.406       .  A
C1034      H1043   1.084       .  S
C1035      C1036   1.408       .  A
C1036      H1044   1.085       .  S
C1045      C1046   1.402       .  A
C1045      C1050   1.405       .  A
C1045      H1061   1.083       .  S
C1046      C1047   1.405       .  A
C1046      H1062   1.083       .  S
C1047      C1057   1.406       .  A
C1047      C1048   1.411       .  A
C1048      C1054   1.413       .  A
C1048      C1049   1.413       .  A
C1049      C1051   1.410       .  A
C1049      C1050   1.413       .  A
C1050      C1058   1.409       .  A
C1051      C1060   1.400       .  A
C1051      C1052   1.403       .  A
C1052      C1053   1.397   1_545  A
C1052      H1063   1.084   1_545  S
C1053      C1054   1.402   1_565  A
C1053      H1492   1.084       .  S
C1054      C1055   1.401       .  A
C1055      C1056   1.402       .  A
C1055      H1493   1.085   1_545  S
C1056      C1057   1.407       .  A
C1057      H1066   1.084       .  S
C1058      C1059   1.409       .  A
C1058      H1067   1.084       .  S
C1059      C1060   1.408       .  A
C1060      H1068   1.084       .  S
H1064      C1481   1.084       .  S
H1065      C1483   1.085       .  S
C1069      C1070   1.404       .  A
C1069      C1074   1.406       .  A
C1069      H1085   1.083   1_545  S
C1070      C1071   1.405       .  A
C1070      H1086   1.084       .  S
C1071      C1081   1.411       .  A
C1071      C1072   1.414       .  A
C1072      C1078   1.409       .  A
C1072      C1073   1.411       .  A
C1073      C1075   1.413       .  A
C1073      C1074   1.411       .  A
C1074      C1082   1.408       .  A
C1075      C1084   1.397       .  A
C1075      C1076   1.400       .  A
C1076      C1077   1.394       .  A
C1076      H1087   1.084       .  S
C1077      C1078   1.402       .  A
C1077      H1088   1.083       .  S
C1078      C1079   1.394       .  A
C1079      C1080   1.407       .  A
C1079      H1089   1.084       .  S
C1080      C1081   1.409       .  A
C1081      H1090   1.084       .  S
C1082      C1083   1.408       .  A
C1082      H1091   1.084   1_545  S
C1083      C1084   1.399       .  A
C1084      H1092   1.085       .  S
C1093      C1094   1.397       .  A
C1093      C1098   1.402       .  A
C1093      H1109   1.084       .  S
C1094      C1095   1.403       .  A
C1094      H1110   1.083       .  S
C1095      C1105   1.402       .  A
C1095      C1096   1.411       .  A
C1096      C1097   1.409   1_545  A
C1097      C1098   1.408   1_565  A
C1098      C1106   1.397       .  A
C1099      C1108   1.403       .  A
C1099      C1100   1.404       .  A
C1100      C1101   1.398       .  A
C1100      H1111   1.083       .  S
C1101      C1102   1.403       .  A
C1101      H1112   1.084       .  S
C1102      C1103   1.398       .  A
C1103      C1532   1.411   1_655  A
C1103      H1113   1.085       .  S
C1104      C1531   1.411   1_445  A
C1105      H1114   1.077       .  S
C1106      C1107   1.409   1_545  A
C1106      H1115   1.085       .  S
C1108      H1116   1.075       .  S
C1117      C1118   1.398   1_554  A
C1117      C1122   1.403       .  A
C1117      H1133   1.084       .  S
C1118      C1119   1.404       .  A
C1118      H1134   1.084       .  S
C1119      C1129   1.402       .  A
C1120      C1126   1.410       .  A
C1120      C1121   1.414   1_556  A
C1121      C1123   1.409       .  A
C1122      C1130   1.402       .  A
C1123      C1132   1.406       .  A
C1123      C1124   1.405       .  A
C1124      C1125   1.400   1_554  A
C1124      H1135   1.082       .  S
C1125      C1126   1.404       .  A
C1125      H1136   1.084       .  S
C1126      C1127   1.405       .  A
C1127      C1128   1.412       .  A
C1127      H1137   1.084       .  S
C1129      H1138   1.079       .  S
C1130      H1139   1.084       .  S
C1131      C1132   1.415       .  A
C1132      H1140   1.071       .  S
C1141      C1142   1.400       .  A
C1141      C1146   1.404       .  A
C1141      H1157   1.083       .  S
C1142      C1143   1.403       .  A
C1142      H1158   1.084       .  S
C1143      C1153   1.406       .  A
C1143      C1144   1.414       .  A
C1144      C1150   1.410       .  A
C1144      C1145   1.412       .  A
C1145      C1147   1.413       .  A
C1145      C1146   1.410       .  A
C1146      C1154   1.402       .  A
C1147      C1156   1.403       .  A
C1147      C1148   1.403       .  A
C1148      C1149   1.398       .  A
C1148      H1587   1.083       .  S
C1149      C1150   1.404       .  A
C1149      H1160   1.084       .  S
C1150      C1151   1.400       .  A
C1151      C1152   1.407       .  A
C1151      H1161   1.085       .  S
C1152      C1153   1.404       .  A
C1153      H1162   1.085       .  S
C1154      C1155   1.409       .  A
C1154      H1163   1.083       .  S
C1155      C1156   1.405       .  A
C1156      H1592   1.084       .  S
H1159      C1576   1.083   1_545  S
H1164      C1584   1.084   1_545  S
C1165      C1166   1.403       .  A
C1165      C1170   1.406       .  A
C1165      H1609   1.083       .  S
C1166      C1167   1.405       .  A
C1166      H1182   1.084       .  S
C1167      C1177   1.411       .  A
C1167      C1168   1.414       .  A
C1168      C1174   1.408       .  A
C1168      C1169   1.411       .  A
C1169      C1171   1.413       .  A
C1169      C1170   1.411       .  A
C1170      C1178   1.407       .  A
C1171      C1180   1.397       .  A
C1171      C1172   1.400       .  A
C1172      C1173   1.394       .  A
C1172      H1183   1.084       .  S
C1173      C1174   1.402       .  A
C1173      H1184   1.083       .  S
C1174      C1175   1.393       .  A
C1175      C1176   1.407       .  A
C1175      H1185   1.084       .  S
C1176      C1177   1.408       .  A
C1177      H1186   1.084       .  S
C1178      C1179   1.407       .  A
C1178      H1615   1.084       .  S
C1179      C1180   1.399       .  A
C1180      H1188   1.085       .  S
H1181      C1593   1.083   1_545  S
H1187      C1606   1.084   1_545  S
C1189      C1190   1.401       .  A
C1189      C1194   1.404       .  A
C1189      H1205   1.084       .  S
C1190      C1191   1.405       .  A
C1190      H1206   1.083       .  S
C1191      C1201   1.405       .  A
C1191      C1192   1.411       .  A
C1192      C1198   1.412       .  A
C1192      C1193   1.412       .  A
C1193      C1195   1.409       .  A
C1193      C1194   1.414       .  A
C1194      C1202   1.409       .  A
C1195      C1204   1.398       .  A
C1195      C1196   1.404       .  A
C1196      C1197   1.397       .  A
C1196      H1207   1.083       .  S
C1197      C1198   1.402       .  A
C1197      H1208   1.084       .  S
C1198      C1199   1.401       .  A
C1199      C1200   1.404       .  A
C1199      H1209   1.085       .  S
C1200      C1201   1.407       .  A
C1201      H1210   1.084       .  S
C1202      C1203   1.406       .  A
C1202      H1211   1.085       .  S
C1203      C1204   1.408       .  A
C1204      H1212   1.084       .  S
C1213      C1214   1.397       .  A
C1213      C1218   1.402       .  A
C1213      H1229   1.083       .  S
C1214      C1215   1.403       .  A
C1214      H1230   1.085       .  S
C1215      C1225   1.398       .  A
C1215      C1216   1.409       .  A
C1216      C1222   1.413       .  A
C1216      C1217   1.413       .  A
C1217      C1219   1.412       .  A
C1217      C1218   1.413       .  A
C1218      C1226   1.401       .  A
C1219      C1228   1.407       .  A
C1219      C1220   1.405       .  A
C1220      C1221   1.402       .  A
C1220      H1231   1.083       .  S
C1221      C1222   1.405       .  A
C1221      H1232   1.083       .  S
C1222      C1223   1.409       .  A
C1223      C1224   1.408       .  A
C1223      H1233   1.084       .  S
C1224      C1225   1.409       .  A
C1225      H1234   1.085       .  S
C1226      C1227   1.402       .  A
C1226      H1235   1.084       .  S
C1227      C1228   1.406       .  A
C1228      H1236   1.084       .  S
C1237      C1238   1.402       .  A
C1237      C1242   1.404       .  A
C1237      H1253   1.083       .  S
C1238      C1239   1.405       .  A
C1238      H1254   1.083       .  S
C1239      C1249   1.406       .  A
C1239      C1240   1.411       .  A
C1240      C1246   1.413       .  A
C1240      C1241   1.413       .  A
C1241      C1243   1.409       .  A
C1241      C1242   1.414       .  A
C1242      C1250   1.410       .  A
C1243      C1252   1.398       .  A
C1243      C1244   1.403       .  A
C1244      C1245   1.397       .  A
C1244      H1255   1.084       .  S
C1245      C1246   1.402       .  A
C1245      H1684   1.083       .  S
C1246      C1247   1.402       .  A
C1247      C1248   1.402       .  A
C1247      H1685   1.084       .  S
C1248      C1249   1.406       .  A
C1249      H1258   1.084       .  S
C1250      C1251   1.407       .  A
C1250      H1259   1.084       .  S
C1251      C1252   1.409       .  A
C1252      H1260   1.085       .  S
H1256      C1673   1.083   1_545  S
H1257      C1675   1.084   1_545  S
C1261      C1262   1.399       .  A
C1261      C1266   1.404       .  A
C1261      H1277   1.083       .  S
C1262      C1263   1.403       .  A
C1262      H1278   1.083       .  S
C1263      C1273   1.404       .  A
C1263      C1264   1.413       .  A
C1264      C1270   1.411       .  A
C1264      C1265   1.413       .  A
C1265      C1267   1.413       .  A
C1265      C1266   1.409       .  A
C1266      C1274   1.400       .  A
C1267      C1276   1.407       .  A
C1267      C1268   1.403       .  A
C1268      C1269   1.400       .  A
C1268      H1279   1.084       .  S
C1269      C1270   1.404       .  A
C1270      C1271   1.403       .  A
C1271      C1272   1.406       .  A
C1272      C1273   1.404       .  A
C1273      H1282   1.084       .  S
C1274      C1275   1.410       .  A
C1274      H1283   1.084       .  S
C1275      C1276   1.406       .  A
C1276      H1284   1.084       .  S
O1285      C1300   1.263       .  A
O1285     Al1293   1.914       .  S
C1286      O1296   1.264       .  A
C1286      O1287   1.260       .  A
C1286      C1679   1.483       .  S
O1287     Al1289   1.894       .  S
O1288      C1290   1.264       .  A
O1288     Al1289   1.916       .  S
Al1289     O1297   1.921       .  S
Al1289     O1299   1.902       .  S
Al1289     O1298   1.790       .  S
C1290      O1303   1.262       .  A
C1290      C1652   1.485       .  S
O1291      C1301   1.264       .  A
O1291     Al1293   1.913       .  S
O1292      C1305   1.263       .  A
O1292     Al1302   1.918       .  S
Al1293     O1306   1.899       .  S
Al1293     O1303   1.902       .  S
Al1293     O1298   1.784       .  S
O1294      C1301   1.262       .  A
O1294     Al1302   1.902       .  S
O1295      C1304   1.261       .  A
O1295     Al1302   1.889       .  S
O1296     Al1302   1.920       .  S
O1297      C1304   1.264       .  A
O1298     Al1302   1.785       .  S
O1299      C1300   1.260       .  A
C1300      C1580   1.475       .  S
C1301      C1703   1.482       .  S
C1304      C1604   1.481       .  S
C1305      O1306   1.260       .  A
C1305      C1631   1.480       .  S
C1307      C1308   1.541   1_545  S
C1307      C1559   1.532       .  S
C1308      H1315   1.086       .  S
C1308      C1309   1.365       .  D
C1309      C1310   1.537   1_565  S
C1309      C1655   1.478       .  S
C1311      H1317   1.086       .  S
C1311      C1312   1.364       .  D
C1312      C1676   1.478       .  S
C1313      H1318   1.078       .  S
C1313      C1314   1.366       .  D
C1314      C1700   1.481       .  S
C1319      C1532   1.522       .  S
C1320      H1327   1.081       .  S
C1320      C1321   1.369       .  D
C1321      C1628   1.483       .  S
C1322      H1328   1.110       .  S
C1323      H1329   1.086   1_545  S
C1323      C1324   1.361       .  D
C1324      C1607   1.474   1_545  S
C1325      H1330   1.086       .  S
C1325      C1326   1.363       .  D
C1326      C1583   1.487       .  S
O1331      C1346   1.263       .  A
O1331     Al1339   1.914       .  S
C1332      O1342   1.264       .  A
C1332      O1333   1.264       .  A
C1332      C1487   1.485       .  S
O1333     Al1335   1.912       .  S
O1334      C1336   1.263       .  A
O1334     Al1335   1.915       .  S
Al1335     O1343   1.917       .  S
Al1335     O1345   1.916       .  S
Al1335     O1344   1.789       .  S
C1336      O1349   1.262       .  A
C1336      C1508   1.481       .  S
O1337      C1347   1.263       .  A
O1337     Al1339   1.915       .  S
O1338      C1351   1.263       .  A
O1338     Al1348   1.909       .  S
Al1339     O1352   1.911       .  S
Al1339     O1349   1.896       .  S
Al1339     O1344   1.784       .  S
O1340      C1347   1.259       .  A
O1340     Al1348   1.894       .  S
O1341      C1350   1.259       .  A
O1341     Al1348   1.886       .  S
O1342     Al1348   1.913       .  S
O1343      C1350   1.264       .  A
O1344     Al1348   1.784       .  S
O1345      C1346   1.264       .  A
C1346      C1439   1.484       .  S
C1347      C1463   1.479       .  S
C1350      C1412   1.481       .  S
C1351      O1352   1.263       .  A
C1351      C1391   1.484       .  S
C1353      C1556   1.533       .  S
C1354      H1361   1.082       .  S
C1354      C1355   1.363       .  D
C1355      C1388   1.480       .  S
C1356      H1362   1.111       .  S
C1357      H1363   1.087       .  S
C1357      C1358   1.361       .  D
C1358      C1415   1.469       .  S
C1359      H1364   1.086       .  S
C1359      C1360   1.371       .  D
C1360      C1436   1.490       .  S
C1365      C1369   1.539       .  S
C1365      C1535   1.523       .  S
C1366      H1373   1.086       .  S
C1366      C1367   1.363       .  D
C1367      C1511   1.475       .  S
C1368      H1374   1.111       .  S
C1369      H1375   1.087       .  S
C1369      C1370   1.361       .  D
C1370      C1484   1.478       .  S
C1371      H1376   1.080       .  S
C1371      C1372   1.366       .  D
C1372      C1460   1.479       .  S
C1377      C1378   1.399       .  A
C1377      C1382   1.404       .  A
C1377      H1393   1.083       .  S
C1378      C1379   1.403       .  A
C1379      C1389   1.403       .  A
C1379      C1380   1.413       .  A
C1380      C1386   1.411       .  A
C1380      C1381   1.413       .  A
C1381      C1383   1.412       .  A
C1381      C1382   1.410       .  A
C1382      C1390   1.401       .  A
C1383      C1392   1.407       .  A
C1383      C1384   1.404       .  A
C1384      C1385   1.401       .  A
C1384      H1395   1.083       .  S
C1385      C1386   1.404       .  A
C1385      H1396   1.084       .  S
C1386      C1387   1.405       .  A
C1387      C1388   1.406       .  A
C1387      H1397   1.084       .  S
C1388      C1389   1.403       .  A
C1390      C1391   1.409       .  A
C1390      H1399   1.084       .  S
C1391      C1392   1.408       .  A
C1392      H1400   1.084       .  S
C1401      C1402   1.397       .  A
C1401      C1406   1.402       .  A
C1401      H1417   1.084       .  S
C1402      C1403   1.404       .  A
C1402      H1418   1.083       .  S
C1403      C1413   1.396       .  A
C1403      C1404   1.408       .  A
C1404      C1410   1.414       .  A
C1404      C1405   1.411       .  A
C1405      C1407   1.412       .  A
C1405      C1406   1.414       .  A
C1406      C1414   1.400       .  A
C1407      C1416   1.404       .  A
C1407      C1408   1.404       .  A
C1408      C1409   1.400       .  A
C1408      H1419   1.083       .  S
C1409      C1410   1.404       .  A
C1409      H1420   1.084       .  S
C1410      C1411   1.407       .  A
C1411      C1412   1.406       .  A
C1411      H1421   1.084       .  S
C1412      C1413   1.410       .  A
C1413      H1422   1.084       .  S
C1414      C1415   1.400       .  A
C1414      H1423   1.086       .  S
C1415      C1416   1.403       .  A
C1416      H1424   1.084       .  S
C1425      C1426   1.399       .  A
C1425      C1430   1.403       .  A
C1425      H1441   1.084       .  S
C1426      C1427   1.403       .  A
C1427      C1437   1.404       .  A
C1427      C1428   1.412       .  A
C1428      C1434   1.411       .  A
C1428      C1429   1.415       .  A
C1429      C1431   1.413       .  A
C1429      C1430   1.410       .  A
C1430      C1438   1.402       .  A
C1431      C1440   1.410       .  A
C1431      C1432   1.405       .  A
C1432      C1433   1.403       .  A
C1432      H1443   1.083       .  S
C1433      C1434   1.405       .  A
C1433      H1444   1.084       .  S
C1434      C1435   1.409       .  A
C1435      C1436   1.409       .  A
C1436      C1437   1.406       .  A
C1438      C1439   1.408       .  A
C1438      H1447   1.085       .  S
C1439      C1440   1.408       .  A
C1440      H1448   1.084       .  S
C1449      C1450   1.401       .  A
C1449      C1454   1.404       .  A
C1449      H1465   1.083       .  S
C1450      C1451   1.404       .  A
C1451      C1461   1.404       .  A
C1451      C1452   1.411       .  A
C1452      C1458   1.412       .  A
C1452      C1453   1.411       .  A
C1453      C1455   1.409       .  A
C1453      C1454   1.413       .  A
C1454      C1462   1.407       .  A
C1455      C1464   1.397       .  A
C1455      C1456   1.403       .  A
C1456      C1457   1.397       .  A
C1456      H1467   1.084       .  S
C1457      C1458   1.402       .  A
C1457      H1468   1.083       .  S
C1458      C1459   1.400       .  A
C1459      C1460   1.403       .  A
C1459      H1469   1.084       .  S
C1460      C1461   1.406       .  A
C1462      C1463   1.406       .  A
C1462      H1471   1.084       .  S
C1463      C1464   1.408       .  A
C1464      H1472   1.085       .  S
C1473      C1474   1.402       .  A
C1473      C1478   1.405       .  A
C1473      H1489   1.083       .  S
C1474      C1475   1.405       .  A
C1474      H1490   1.083       .  S
C1475      C1485   1.406       .  A
C1475      C1476   1.411       .  A
C1476      C1482   1.413       .  A
C1476      C1477   1.413       .  A
C1477      C1479   1.410       .  A
C1477      C1478   1.413       .  A
C1478      C1486   1.409       .  A
C1479      C1488   1.399       .  A
C1479      C1480   1.403       .  A
C1480      C1481   1.397       .  A
C1480      H1491   1.084       .  S
C1481      C1482   1.402       .  A
C1482      C1483   1.401       .  A
C1483      C1484   1.401       .  A
C1484      C1485   1.407       .  A
C1485      H1494   1.084       .  S
C1486      C1487   1.409       .  A
C1486      H1495   1.084       .  S
C1487      C1488   1.408       .  A
C1488      H1496   1.084       .  S
C1497      C1498   1.404       .  A
C1497      C1502   1.406       .  A
C1497      H1513   1.083       .  S
C1498      C1499   1.405       .  A
C1498      H1514   1.084       .  S
C1499      C1509   1.411       .  A
C1499      C1500   1.414       .  A
C1500      C1506   1.409       .  A
C1500      C1501   1.411       .  A
C1501      C1503   1.413       .  A
C1501      C1502   1.411       .  A
C1502      C1510   1.408       .  A
C1503      C1512   1.396       .  A
C1503      C1504   1.400       .  A
C1504      C1505   1.394       .  A
C1504      H1515   1.084       .  S
C1505      C1506   1.402       .  A
C1505      H1516   1.083       .  S
C1506      C1507   1.394       .  A
C1507      C1508   1.407       .  A
C1507      H1517   1.084       .  S
C1508      C1509   1.409       .  A
C1509      H1518   1.084       .  S
C1510      C1511   1.408       .  A
C1510      H1519   1.084       .  S
C1511      C1512   1.399       .  A
C1512      H1520   1.085       .  S
C1521      C1522   1.397       .  A
C1521      C1526   1.402       .  A
C1521      H1537   1.084       .  S
C1522      C1523   1.403       .  A
C1522      H1538   1.083       .  S
C1523      C1533   1.402       .  A
C1523      C1524   1.411       .  A
C1524      C1525   1.410       .  A
C1525      C1526   1.408       .  A
C1526      C1534   1.397       .  A
C1527      C1536   1.403       .  A
C1527      C1528   1.404       .  A
C1528      C1529   1.398       .  A
C1528      H1539   1.083       .  S
C1529      C1530   1.403       .  A
C1529      H1540   1.084       .  S
C1530      C1531   1.398       .  A
C1531      H1541   1.085       .  S
C1533      H1542   1.077       .  S
C1534      C1535   1.409       .  A
C1534      H1543   1.085       .  S
C1536      H1544   1.075       .  S
C1545      C1546   1.398   1_554  A
C1545      C1550   1.403       .  A
C1545      H1561   1.084       .  S
C1546      C1547   1.404       .  A
C1546      H1562   1.084       .  S
C1547      C1557   1.402       .  A
C1548      C1554   1.410   1_565  A
C1548      C1549   1.414   1_566  A
C1549      C1551   1.409       .  A
C1550      C1558   1.402       .  A
C1551      C1560   1.406       .  A
C1551      C1552   1.405       .  A
C1552      C1553   1.400   1_554  A
C1552      H1563   1.082       .  S
C1553      C1554   1.404       .  A
C1553      H1564   1.084       .  S
C1554      C1555   1.405       .  A
C1555      C1556   1.411   1_545  A
C1555      H1565   1.084       .  S
C1557      H1566   1.079       .  S
C1558      H1567   1.084       .  S
C1559      C1560   1.415       .  A
C1560      H1568   1.071       .  S
C1569      C1570   1.400       .  A
C1569      C1574   1.404       .  A
C1569      H1585   1.083       .  S
C1570      C1571   1.403       .  A
C1570      H1586   1.084       .  S
C1571      C1581   1.406       .  A
C1571      C1572   1.414       .  A
C1572      C1578   1.410       .  A
C1572      C1573   1.412       .  A
C1573      C1575   1.412       .  A
C1573      C1574   1.410       .  A
C1574      C1582   1.402       .  A
C1575      C1584   1.403       .  A
C1575      C1576   1.403       .  A
C1576      C1577   1.398       .  A
C1577      C1578   1.404       .  A
C1577      H1588   1.084       .  S
C1578      C1579   1.399       .  A
C1579      C1580   1.407       .  A
C1579      H1589   1.085       .  S
C1580      C1581   1.404       .  A
C1581      H1590   1.085       .  S
C1582      C1583   1.409       .  A
C1582      H1591   1.083       .  S
C1583      C1584   1.405       .  A
C1593      C1594   1.404       .  A
C1593      C1598   1.406       .  A
C1594      C1595   1.405       .  A
C1594      H1610   1.084       .  S
C1595      C1605   1.411       .  A
C1595      C1596   1.414       .  A
C1596      C1602   1.408       .  A
C1596      C1597   1.411       .  A
C1597      C1599   1.413       .  A
C1597      C1598   1.411       .  A
C1598      C1606   1.407       .  A
C1599      C1608   1.397       .  A
C1599      C1600   1.400       .  A
C1600      C1601   1.394       .  A
C1600      H1611   1.084       .  S
C1601      C1602   1.402       .  A
C1601      H1612   1.083       .  S
C1602      C1603   1.393       .  A
C1603      C1604   1.407       .  A
C1603      H1613   1.084       .  S
C1604      C1605   1.408       .  A
C1605      H1614   1.084       .  S
C1606      C1607   1.407       .  A
C1607      C1608   1.399       .  A
C1608      H1616   1.085       .  S
C1617      C1618   1.401       .  A
C1617      C1622   1.404       .  A
C1617      H1633   1.084       .  S
C1618      C1619   1.405       .  A
C1618      H1634   1.083       .  S
C1619      C1629   1.405       .  A
C1619      C1620   1.411       .  A
C1620      C1626   1.412       .  A
C1620      C1621   1.412       .  A
C1621      C1623   1.409       .  A
C1621      C1622   1.414       .  A
C1622      C1630   1.409       .  A
C1623      C1632   1.398       .  A
C1623      C1624   1.404       .  A
C1624      C1625   1.397       .  A
C1624      H1635   1.083       .  S
C1625      C1626   1.402       .  A
C1625      H1636   1.084       .  S
C1626      C1627   1.401       .  A
C1627      C1628   1.404       .  A
C1627      H1637   1.085       .  S
C1628      C1629   1.407       .  A
C1629      H1638   1.084       .  S
C1630      C1631   1.406       .  A
C1630      H1639   1.085       .  S
C1631      C1632   1.408       .  A
C1632      H1640   1.084       .  S
C1641      C1642   1.397       .  A
C1641      C1646   1.402       .  A
C1641      H1657   1.083       .  S
C1642      C1643   1.403       .  A
C1642      H1658   1.085       .  S
C1643      C1653   1.398       .  A
C1643      C1644   1.409       .  A
C1644      C1650   1.413       .  A
C1644      C1645   1.413       .  A
C1645      C1647   1.412       .  A
C1645      C1646   1.413       .  A
C1646      C1654   1.401       .  A
C1647      C1656   1.407       .  A
C1647      C1648   1.405       .  A
C1648      C1649   1.402       .  A
C1648      H1659   1.083   1_565  S
C1649      C1650   1.405       .  A
C1649      H1660   1.083       .  S
C1650      C1651   1.409       .  A
C1651      C1652   1.408       .  A
C1651      H1661   1.084       .  S
C1652      C1653   1.409       .  A
C1653      H1662   1.085       .  S
C1654      C1655   1.402       .  A
C1654      H1663   1.084       .  S
C1655      C1656   1.406       .  A
C1656      H1664   1.084   1_565  S
C1665      C1666   1.402       .  A
C1665      C1670   1.404       .  A
C1665      H1681   1.083       .  S
C1666      C1667   1.405       .  A
C1666      H1682   1.083       .  S
C1667      C1677   1.406       .  A
C1667      C1668   1.411       .  A
C1668      C1674   1.413       .  A
C1668      C1669   1.413       .  A
C1669      C1671   1.409       .  A
C1669      C1670   1.414       .  A
C1670      C1678   1.410       .  A
C1671      C1680   1.398       .  A
C1671      C1672   1.403       .  A
C1672      C1673   1.397       .  A
C1672      H1683   1.084   1_565  S
C1673      C1674   1.402       .  A
C1674      C1675   1.402       .  A
C1675      C1676   1.402       .  A
C1676      C1677   1.406       .  A
C1677      H1686   1.084       .  S
C1678      C1679   1.407       .  A
C1678      H1687   1.084       .  S
C1679      C1680   1.409       .  A
C1680      H1688   1.085       .  S
C1689      C1690   1.399       .  A
C1689      C1694   1.404       .  A
C1689      H1705   1.083       .  S
C1690      C1691   1.403       .  A
C1690      H1706   1.083       .  S
C1691      C1701   1.404       .  A
C1691      C1692   1.413       .  A
C1692      C1698   1.411       .  A
C1692      C1693   1.413       .  A
C1693      C1695   1.413       .  A
C1693      C1694   1.409       .  A
C1694      C1702   1.400       .  A
C1695      C1704   1.407       .  A
C1695      C1696   1.403       .  A
C1696      C1697   1.400       .  A
C1696      H1707   1.084       .  S
C1697      C1698   1.404       .  A
C1698      C1699   1.403       .  A
C1699      C1700   1.406       .  A
C1700      C1701   1.404       .  A
C1701      H1710   1.084       .  S
C1702      C1703   1.410       .  A
C1702      H1711   1.084       .  S
C1703      C1704   1.406       .  A
C1704      H1712   1.084       .  S
