geometry optimzed in LAMMPS
_audit_creation_date              2020-12-01 
_audit_creation_method            'lammps2cif' 
_symmetry_space_group_name_H-M    'P1' 
_symmetry_Int_Tables_number       1 
_symmetry_cell_setting            triclinic 
loop_ 
_symmetry_equiv_pos_as_xyz 
  x,y,z 
_cell_length_a                    36.50796426 
_cell_length_b                    37.00573077407795 
_cell_length_c                    36.968872624990496 
_cell_angle_alpha                 90.05397725155572 
_cell_angle_beta                  90.06990825394774 
_cell_angle_gamma                 90.19037968194837 
loop_ 
_atom_site_label 
_atom_site_type_symbol 
_atom_site_fract_x 
_atom_site_fract_y 
_atom_site_fract_z 
_atom_site_charge 
O1          O  0.46113180  0.53986119  0.60812307    -0.71600
O2          O  0.52594714  0.45925362  0.60562010    -0.71800
O3          O  0.45259710  0.46782227  0.60961137    -0.71700
O4          O  0.53371187  0.53168614  0.60379664    -0.71700
O5          O  0.53507661  0.53569913  0.66229833    -0.71600
O6          O  0.45866832  0.46529118  0.66800441    -0.71700
O7          O  0.53256973  0.46271776  0.66379086    -0.71600
O8          O  0.46138646  0.53843223  0.66678265    -0.71800
V9          V  0.49341919  0.49957533  0.60794672     1.35200
V10         V  0.49685191  0.50048492  0.66417254     1.35200
C11         C  0.44988150  0.55277995  0.63781581     0.77600
C12         C  0.54118521  0.44767688  0.63418804     0.77700
C13         C  0.44203172  0.45527334  0.63961883     0.77600
C14         C  0.54756892  0.54559686  0.63191263     0.77500
O15         O  0.76110219  0.45913424  0.30142537    -0.71600
O16         O  0.76547358  0.52835832  0.37761884    -0.71800
O17         O  0.76223932  0.53210374  0.30486930    -0.71700
O18         O  0.76444431  0.45645989  0.37387907    -0.71700
O19         O  0.82383410  0.45522768  0.37114480    -0.71600
O20         O  0.82160988  0.53166614  0.30157457    -0.71700
O21         O  0.82481856  0.52834076  0.37519968    -0.71600
O22         O  0.82042696  0.45877000  0.29823320    -0.71800
V23         V  0.76455731  0.49406106  0.33923902     1.35200
V24         V  0.82159490  0.49357849  0.33658514     1.35200
C25         C  0.78990030  0.44669565  0.28705390     0.77600
C26         C  0.79570102  0.53966172  0.39011932     0.77700
C27         C  0.79135990  0.54494839  0.29146259     0.77600
C28         C  0.79435001  0.44306568  0.38452807     0.77500
O29         O  0.45950660  0.78083363  0.36891469    -0.71600
O30         O  0.54387143  0.78529235  0.30979193    -0.71800
O31         O  0.53160665  0.78107452  0.38081523    -0.71700
O32         O  0.47090024  0.78514311  0.29764904    -0.71700
O33         O  0.46505269  0.84296566  0.30496812    -0.71600
O34         O  0.53697409  0.83954983  0.38015583    -0.71700
O35         O  0.53947848  0.84374866  0.30742376    -0.71600
O36         O  0.46315707  0.83871849  0.37801524    -0.71800
V37         V  0.50148851  0.78420088  0.33923723     1.35200
V38         V  0.50112019  0.84032341  0.34249775     1.35200
C39         C  0.44779261  0.80873500  0.38476131     0.77600
C40         C  0.55596422  0.81512705  0.29814711     0.77700
C41         C  0.54543227  0.80947893  0.39411989     0.77600
C42         C  0.45600126  0.81446937  0.28805786     0.77500
O43         O  0.18933438  0.46495520  0.37593434    -0.71600
O44         O  0.18597921  0.53743684  0.30262501    -0.71800
O45         O  0.19029330  0.46430444  0.30323028    -0.71700
O46         O  0.18512080  0.53818853  0.37539184    -0.71700
O47         O  0.24440588  0.54088744  0.37653053    -0.71600
O48         O  0.24952893  0.46869090  0.30338335    -0.71700
O49         O  0.24525290  0.54125343  0.30389928    -0.71600
O50         O  0.24865050  0.46792558  0.37584690    -0.71800
V51         V  0.18880096  0.50128565  0.33933723     1.35200
V52         V  0.24576862  0.50464428  0.33998345     1.35200
C53         C  0.21967451  0.45328741  0.38767648     0.77600
C54         C  0.21508534  0.55200823  0.29094635     0.77700
C55         C  0.22088116  0.45391478  0.29089061     0.77600
C56         C  0.21400213  0.55251798  0.38805491     0.77500
O57         O  0.54626307  0.21802245  0.29838776    -0.71600
O58         O  0.46661787  0.21773058  0.36386934    -0.71800
O59         O  0.53964992  0.21649470  0.36994944    -0.71700
O60         O  0.47361416  0.21932169  0.29169341    -0.71700
O61         O  0.46723625  0.16099252  0.29407639    -0.71600
O62         O  0.54347068  0.15817811  0.36511737    -0.71700
O63         O  0.46983986  0.15922116  0.36754092    -0.71600
O64         O  0.54117724  0.15989272  0.29179685    -0.71800
V65         V  0.50644904  0.21673076  0.33097877     1.35200
V66         V  0.50540979  0.16048478  0.32964106     1.35200
C67         C  0.55657417  0.18933175  0.28298158     0.77600
C68         C  0.45565983  0.18858724  0.37806392     0.77700
C69         C  0.55389326  0.18719689  0.38021707     0.77600
C70         C  0.45866170  0.19090509  0.27976590     0.77500
O71         O  0.54391095  0.47963353  0.05202639    -0.71600
O72         O  0.46640266  0.54700651  0.06182352    -0.71800
O73         O  0.47092042  0.47425886  0.05911789    -0.71700
O74         O  0.53873539  0.55218925  0.05476094    -0.71700
O75         O  0.53458549  0.55293476  0.99619367    -0.71600
O76         O  0.46347049  0.47664871  0.00101057    -0.71700
O77         O  0.46083234  0.54965504  0.00335080    -0.71600
O78         O  0.53676266  0.47955152  0.99375183    -0.71800
V79         V  0.50488544  0.51321988  0.05572151     1.35200
V80         V  0.49908017  0.51470625  0.99963273     1.35200
C81         C  0.55309631  0.46741567  0.02139655     0.77600
C82         C  0.45088465  0.56031949  0.03435721     0.77700
C83         C  0.45536006  0.46208133  0.03099805     0.77600
C84         C  0.54787685  0.56631166  0.02497838     0.77500
C85         C  0.74019295  0.73449294  0.57485534    -0.02300
C86         C  0.76445571  0.76376681  0.60134495    -0.02300
C87         C  0.73293631  0.25579679  0.57402639    -0.02300
C88         C  0.76231905  0.23047362  0.60059411    -0.02300
C89         C  0.25907281  0.73997175  0.57534272    -0.02300
C90         C  0.23762282  0.76987806  0.60324108    -0.02300
C91         C  0.73589708  0.74203190  0.10493430    -0.02300
C92         C  0.76266023  0.77292467  0.08194969    -0.02300
C93         C  0.26863493  0.25577577  0.56963830    -0.02300
C94         C  0.23999092  0.22624778  0.59105785    -0.02300
C95         C  0.26319425  0.75050238  0.11019575    -0.02300
C96         C  0.23733241  0.77434434  0.08034920    -0.02300
C97         C  0.72641772  0.27191581  0.08284022    -0.02300
C98         C  0.75518595  0.24449355  0.05948874    -0.02300
C99         C  0.26983967  0.26965109  0.09342474    -0.02300
C100        C  0.24100365  0.24173856  0.07057187    -0.02300
O101        O  0.27948822  0.04323992  0.86852447    -0.71600
O102        O  0.27744958  0.95943605  0.80914264    -0.71800
O103        O  0.27726872  0.97179221  0.88077060    -0.71700
O104        O  0.27962565  0.03091507  0.79675711    -0.71700
O105        O  0.33884251  0.03478727  0.80112431    -0.71600
O106        O  0.33617679  0.96520950  0.87780788    -0.71700
O107        O  0.33661624  0.96138235  0.80467107    -0.71600
O108        O  0.33841811  0.03776208  0.87445121    -0.71800
V109        V  0.27958160  0.00132880  0.83878816     1.35200
V110        V  0.33653248  0.99983469  0.83938906     1.35200
C111        C  0.30910068  0.05386396  0.88286692     0.77600
C112        C  0.30654756  0.94637517  0.79606206     0.77700
C113        C  0.30616060  0.95778087  0.89338538     0.77600
C114        C  0.30949971  0.04385666  0.78520791     0.77500
O115        O  0.04047691  0.32279759  0.79378668    -0.71600
O116        O  0.96722763  0.32754352  0.86736148    -0.71800
O117        O  0.04130251  0.32517475  0.86695563    -0.71700
O118        O  0.96684183  0.32519634  0.79445056    -0.71700
O119        O  0.96714882  0.26651555  0.79450052    -0.71600
O120        O  0.03632618  0.26687773  0.87117715    -0.71700
O121        O  0.96307891  0.26904547  0.86636909    -0.71600
O122        O  0.04091643  0.26432813  0.79864370    -0.71800
V123        V  0.00399262  0.32412083  0.83071440     1.35200
V124        V  0.00200145  0.26785434  0.83259178     1.35200
C125        C  0.05346173  0.29265641  0.78398852     0.77600
C126        C  0.95182641  0.29894077  0.87856023     0.77700
C127        C  0.05087598  0.29597432  0.88206395     0.77600
C128        C  0.95424804  0.29571224  0.78222414     0.77500
O129        O  0.03197336  0.04784454  0.16107318    -0.71600
O130        O  0.95655611  0.97695911  0.16767004    -0.71800
O131        O  0.03058633  0.97480153  0.16571545    -0.71700
O132        O  0.95819148  0.04937636  0.16271018    -0.71700
O133        O  0.96153545  0.04911140  0.10408565    -0.71600
O134        O  0.02384999  0.96726609  0.10783267    -0.71700
O135        O  0.95106122  0.97759018  0.10923852    -0.71600
O136        O  0.03412837  0.03953637  0.10304752    -0.71800
V137        V  0.99438243  0.01212443  0.16328363     1.35200
V138        V  0.99277201  0.00838875  0.10713701     1.35200
C139        C  0.04616695  0.05570134  0.13085689     0.77600
C140        C  0.93983661  0.96633097  0.13960477     0.77700
C141        C  0.03845061  0.95738116  0.13723108     0.77600
C142        C  0.94832755  0.06259254  0.13263475     0.77500
O143        O  0.65967259  0.03250871  0.87102491    -0.71600
O144        O  0.65762767  0.95738049  0.79983834    -0.71800
O145        O  0.65930916  0.95907480  0.87273224    -0.71700
O146        O  0.65812561  0.03094238  0.79815757    -0.71700
O147        O  0.71758312  0.03156224  0.79884460    -0.71600
O148        O  0.71862734  0.95766095  0.86939705    -0.71700
O149        O  0.71695205  0.95933374  0.79776070    -0.71600
O150        O  0.71909919  0.03003518  0.87141855    -0.71800
V151        V  0.65969624  0.99501675  0.83544768     1.35200
V152        V  0.71679006  0.99478119  0.83439898     1.35200
C153        C  0.68994288  0.04366816  0.88360150     0.77600
C154        C  0.68731444  0.94530269  0.78691151     0.77700
C155        C  0.68938798  0.94527229  0.88280676     0.77600
C156        C  0.68796179  0.04353739  0.78589007     0.77500
O157        O  0.96280627  0.03676348  0.48714010    -0.71600
O158        O  0.03547321  0.96202812  0.49217708    -0.71800
O159        O  0.96153803  0.96321807  0.49076079    -0.71700
O160        O  0.03696476  0.03511611  0.48809632    -0.71700
O161        O  0.03817413  0.03540521  0.54675708    -0.71600
O162        O  0.95836545  0.96979231  0.54904433    -0.71700
O163        O  0.03115878  0.96319180  0.55070832    -0.71600
O164        O  0.96568911  0.04180642  0.54556877    -0.71800
V165        V  0.99914451  0.99934023  0.49051254     1.35200
V166        V  0.99836717  0.00242515  0.54678316     1.35200
C167        C  0.95281767  0.05278932  0.51585994     0.77600
C168        C  0.04496723  0.94936955  0.52265330     0.77700
C169        C  0.94692385  0.95452199  0.52056657     0.77600
C170        C  0.05053356  0.04745797  0.51716344     0.77500
O171        O  0.95882400  0.73195231  0.87397612    -0.71600
O172        O  0.04022245  0.73018443  0.81055562    -0.71800
O173        O  0.96729452  0.73068907  0.80214909    -0.71700
O174        O  0.03155627  0.73164486  0.88271654    -0.71700
O175        O  0.03683482  0.67334191  0.87934078    -0.71600
O176        O  0.96089881  0.67262225  0.80751630    -0.71700
O177        O  0.03500766  0.67190740  0.80563580    -0.71600
O178        O  0.96298333  0.67378824  0.88070103    -0.71800
V179        V  0.99952634  0.73000206  0.84233488     1.35200
V180        V  0.99898476  0.67381090  0.84324979     1.35200
C181        C  0.94789510  0.70335012  0.88922686     0.77600
C182        C  0.05060502  0.70099881  0.79606301     0.77700
C183        C  0.95196931  0.70178317  0.79184505     0.77600
C184        C  0.04570895  0.70286038  0.89457652     0.77500
C185        C  0.10660036  0.26637255  0.96373593    -0.27400
C186        C  0.13407838  0.29282416  0.96481951     0.02200
C187        C  0.13334288  0.32133152  0.93970137     0.30300
C188        C  0.10558247  0.32271205  0.91341748    -0.19200
C189        C  0.07856012  0.29556359  0.91153372    -0.28600
C190        C  0.07897102  0.26756582  0.93747825     0.44300
C191        C  0.16485872  0.28822838  0.99038572     0.05500
O192        O  0.16022433  0.34729627  0.93994630    -0.57100
H193        H  0.10582675  0.34445500  0.89381686     0.18400
O194        O  0.05267474  0.24100885  0.93727734    -0.63900
H195        H  0.10705155  0.24422758  0.98290164     0.16900
C196        C  0.16222844  0.29829096  0.02678456     0.29100
C197        C  0.19015423  0.28876397  0.05110426    -0.24700
C198        C  0.21835772  0.26459266  0.04138504    -0.24000
C199        C  0.22470916  0.26294780  0.00278190     0.40600
C200        C  0.19731164  0.27286969  0.97825122    -0.26500
O201        O  0.13293355  0.31805619  0.03870861    -0.58400
H202        H  0.19046310  0.30228385  0.07667389     0.16200
O203        O  0.25771847  0.25249665  0.98842180    -0.59800
H204        H  0.20138323  0.26815337  0.94959861     0.14700
H205        H  0.03394958  0.24912496  0.95491382     0.46500
H206        H  0.11445111  0.29988762  0.04633579     0.41900
H207        H  0.26970604  0.27489760  0.97979344     0.45300
H208        H  0.15257938  0.36490232  0.95870193     0.36800
C209        C  0.28372152  0.14102075  0.92979632    -0.27400
C210        C  0.29855299  0.13584718  0.96450025     0.02200
C211        C  0.32039542  0.10521911  0.97099844     0.30300
C212        C  0.32550049  0.07943550  0.94345998    -0.19200
C213        C  0.30877182  0.08373764  0.90946507    -0.28600
C214        C  0.28867415  0.11532574  0.90247701     0.44300
C215        C  0.28644003  0.16008724  0.99424129     0.05500
O216        O  0.33415703  0.09874507  0.00490104    -0.57100
H217        H  0.34077181  0.05507514  0.94933626     0.18400
O218        O  0.27282255  0.12081624  0.86928624    -0.63900
H219        H  0.26697687  0.16452251  0.92430228     0.16900
C220        C  0.31062758  0.18182731  0.01438841     0.29100
C221        C  0.29699209  0.20679765  0.03980174    -0.24700
C222        C  0.25901402  0.21136858  0.04577135    -0.24000
C223        C  0.23516195  0.18766844  0.02551492     0.40600
C224        C  0.24902672  0.16264612  0.00091964    -0.26500
O225        O  0.34767343  0.17960564  0.00884663    -0.58400
H226        H  0.31666669  0.22228380  0.05427089     0.16200
O227        O  0.19767793  0.18939354  0.02924009    -0.59800
H228        H  0.23000356  0.14570415  0.98598468     0.14700
H229        H  0.29180035  0.13337539  0.85473445     0.46500
H230        H  0.35322074  0.19819149  0.99034435     0.41900
H231        H  0.18789026  0.19699110  0.00543976     0.45300
H232        H  0.36071293  0.10434170  0.00321245     0.36800
C233        C  0.15129245  0.20286750  0.11951878    -0.27400
C234        C  0.15911671  0.16610360  0.11973873     0.02200
C235        C  0.19504657  0.15545222  0.11378601     0.30300
C236        C  0.22135912  0.18068567  0.10308933    -0.19200
C237        C  0.21372885  0.21831372  0.09669799    -0.28600
C238        C  0.17781743  0.22890704  0.10933376     0.44300
C239        C  0.12960450  0.13858312  0.12321366     0.05500
O240        O  0.20426324  0.11955134  0.11532685    -0.57100
H241        H  0.24623718  0.16787202  0.09479653     0.18400
O242        O  0.16920858  0.26397047  0.11713289    -0.63900
H243        H  0.12403320  0.21164892  0.12698061     0.16900
C244        C  0.10915632  0.13438364  0.15514803     0.29100
C245        C  0.08257040  0.10692832  0.15755997    -0.24700
C246        C  0.07540380  0.08373983  0.12808371    -0.24000
C247        C  0.09570649  0.08851565  0.09594526     0.40600
C248        C  0.12261969  0.11546629  0.09388727    -0.26500
O249        O  0.11586665  0.15608955  0.18451619    -0.58400
H250        H  0.06730959  0.10403060  0.18250496     0.16200
O251        O  0.09020091  0.06647618  0.06658066    -0.59800
H252        H  0.13816978  0.11842906  0.06910024     0.14700
H253        H  0.14470714  0.26867070  0.10644270     0.46500
H254        H  0.09699011  0.17524463  0.18337870     0.34300
H255        H  0.07289142  0.07980392  0.05078212     0.45300
H256        H  0.21422601  0.11591896  0.14002780     0.36800
C257        C  0.72303329  0.09957374  0.96276524    -0.27400
C258        C  0.70128667  0.13075203  0.95997405     0.02200
C259        C  0.67340769  0.13175662  0.93356451     0.30300
C260        C  0.66852657  0.10228676  0.90990222    -0.19200
C261        C  0.69187762  0.07220718  0.91153575    -0.28600
C262        C  0.71914622  0.07099778  0.93841684     0.44300
C263        C  0.71172217  0.16280375  0.98217146     0.05500
O264        O  0.65305981  0.16244653  0.92861141    -0.57100
H265        H  0.64784094  0.10386776  0.88892564     0.18400
O266        O  0.74224496  0.04193753  0.94112106    -0.63900
H267        H  0.74439098  0.09801654  0.98309648     0.16900
C268        C  0.68710207  0.18163669  0.00454433     0.29100
C269        C  0.70000801  0.20882394  0.02821082    -0.24700
C270        C  0.73770838  0.21702324  0.03147588    -0.24000
C271        C  0.76197758  0.19736027  0.00790273     0.40600
C272        C  0.74866462  0.17230200  0.98314251    -0.26500
O273        O  0.65088541  0.17173158  0.00567299    -0.58400
H274        H  0.68031992  0.22111129  0.04542354     0.16200
O275        O  0.79934067  0.20244414  0.00920778    -0.59800
H276        H  0.76807106  0.15863881  0.96571101     0.14700
H277        H  0.76524521  0.04963919  0.92903040     0.46500
H278        H  0.63718185  0.19274722  0.99604826     0.41900
H279        H  0.80986265  0.17936407  0.01797873     0.45300
H280        H  0.62763952  0.15571697  0.93543655     0.36800
C281        C  0.79712421  0.28583011  0.97077796    -0.27400
C282        C  0.83262484  0.29394929  0.98215706     0.02200
C283        C  0.83915909  0.29737967  0.01940749     0.30300
C284        C  0.81190419  0.28740047  0.04428180    -0.19200
C285        C  0.77943480  0.26937308  0.03324259    -0.28600
C286        C  0.77041924  0.27456539  0.99551128     0.44300
C287        C  0.86241662  0.29677095  0.95489098     0.05500
O288        O  0.87212343  0.31013139  0.03193244    -0.57100
H289        H  0.81582504  0.29656531  0.07140635     0.18400
O290        O  0.73521035  0.26989394  0.98287448    -0.63900
H291        H  0.79030651  0.28702652  0.94226527     0.16900
C292        C  0.86840196  0.26799665  0.93064744     0.29100
C293        C  0.89746872  0.26942404  0.90616645    -0.24700
C294        C  0.92083653  0.29960034  0.90456520    -0.24000
C295        C  0.91412882  0.32906705  0.92791103     0.40600
C296        C  0.88533114  0.32731739  0.95312736    -0.26500
O297        O  0.84696098  0.23747827  0.93185453    -0.58400
H298        H  0.90168144  0.24659786  0.88828380     0.16200
O299        O  0.93631584  0.35902560  0.92733114    -0.59800
H300        H  0.88084635  0.34988799  0.97124656     0.14700
H301        H  0.73659355  0.25250947  0.96247344     0.46500
H302        H  0.83021769  0.23938362  0.91079340     0.41900
H303        H  0.92270302  0.37721992  0.91296180     0.45300
H304        H  0.88696353  0.28825714  0.03681497     0.36800
C305        C  0.80464661  0.15685177  0.10035991    -0.27400
C306        C  0.83683408  0.17135426  0.11388143     0.02200
C307        C  0.84026508  0.20884156  0.11582204     0.30300
C308        C  0.81225358  0.23123230  0.10261835    -0.19200
C309        C  0.78066237  0.21802212  0.08415412    -0.28600
C310        C  0.77692905  0.17863248  0.08591707     0.44300
C311        C  0.86751241  0.14661519  0.12248753     0.05500
O312        O  0.87128388  0.22409901  0.13028922    -0.57100
H313        H  0.81570804  0.25897598  0.10914886     0.18400
O314        O  0.74820072  0.15966548  0.07085281    -0.63900
H315        H  0.80165244  0.12771055  0.09894285     0.16900
C316        C  0.86490894  0.12095872  0.15053411     0.29100
C317        C  0.89231729  0.09470601  0.15480193    -0.24700
C318        C  0.92173121  0.09271723  0.13038369    -0.24000
C319        C  0.92427513  0.11859153  0.10248703     0.40600
C320        C  0.89762679  0.14551511  0.09907772    -0.26500
O321        O  0.83556726  0.12123435  0.17367500    -0.58400
H322        H  0.88970976  0.07491668  0.17623415     0.16200
O323        O  0.95294062  0.11798891  0.07853781    -0.59800
H324        H  0.89963388  0.16469502  0.07702425     0.14700
H325        H  0.73772041  0.14432784  0.09025722     0.46500
H326        H  0.81832298  0.10284510  0.16396441     0.41900
H327        H  0.94303750  0.10642134  0.05637025     0.45300
H328        H  0.86476366  0.23025269  0.15559462     0.36800
C329        C  0.09615001  0.73623776  0.97827676    -0.27400
C330        C  0.12653479  0.71318528  0.97939441     0.02200
C331        C  0.12860314  0.68447160  0.95445224     0.30300
C332        C  0.10118884  0.67999515  0.92794683    -0.19200
C333        C  0.07193085  0.70449741  0.92542277    -0.28600
C334        C  0.06904231  0.73208058  0.95171884     0.44300
C335        C  0.15722907  0.72182344  0.00453331     0.05500
O336        O  0.15736934  0.66077166  0.95580401    -0.57100
H337        H  0.10368363  0.65829792  0.90842448     0.18400
O338        O  0.04008827  0.75561794  0.95136852    -0.63900
H339        H  0.09408543  0.75837521  0.99737600     0.16900
C340        C  0.18907937  0.73814863  0.99149875     0.29100
C341        C  0.21478501  0.75304906  0.01547418    -0.24700
C342        C  0.21154619  0.75104763  0.05387059    -0.24000
C343        C  0.17801046  0.73437032  0.06619836     0.40600
C344        C  0.15231094  0.71956184  0.04182144    -0.26500
O345        O  0.19344554  0.74344599  0.95501672    -0.58400
H346        H  0.23464961  0.76943983  0.00232213     0.16200
O347        O  0.16774550  0.73553441  0.10186124    -0.59800
H348        H  0.12697492  0.70837108  0.05227152     0.14700
H349        H  0.02051040  0.74341352  0.96542687     0.46500
H350        H  0.21211049  0.72558475  0.94743769     0.41900
H351        H  0.14528986  0.75061447  0.10287559     0.45300
H352        H  0.17371501  0.66786937  0.93561833     0.36800
C353        C  0.30210698  0.82045414  0.00689454    -0.27400
C354        C  0.29554915  0.85693264  0.01401113     0.02200
C355        C  0.28038060  0.86588037  0.04766341     0.30300
C356        C  0.26672118  0.83870087  0.07034492    -0.19200
C357        C  0.26478146  0.80167919  0.05940847    -0.28600
C358        C  0.28842733  0.79304282  0.02971382     0.44300
C359        C  0.30066664  0.88467873  0.98498609     0.05500
O360        O  0.27691900  0.90132607  0.05794210    -0.57100
H361        H  0.25484096  0.84761449  0.09557906     0.18400
O362        O  0.29768050  0.75820244  0.02162416    -0.63900
H363        H  0.31601597  0.81272801  0.98224815     0.16900
C364        C  0.33240471  0.88635284  0.96323986     0.29100
C365        C  0.33424120  0.91068865  0.93398685    -0.24700
C366        C  0.30457776  0.93338923  0.92551004    -0.24000
C367        C  0.27329251  0.93223329  0.94791929     0.40600
C368        C  0.27157402  0.90814553  0.97706991    -0.26500
O369        O  0.36213231  0.86511493  0.97101190    -0.58400
H370        H  0.35878383  0.91133346  0.91755914     0.16200
O371        O  0.24435126  0.95506585  0.94210582    -0.59800
H372        H  0.24671523  0.90717075  0.99302563     0.14700
H373        H  0.29408213  0.75452991  0.99521295     0.46500
H374        H  0.36392730  0.84767336  0.95069802     0.41900
H375        H  0.22559827  0.94023935  0.92951355     0.45300
H376        H  0.30000307  0.90719543  0.07081544     0.36800
C377        C  0.15916069  0.84656906  0.08444843    -0.27400
C378        C  0.14768778  0.84633297  0.12029884     0.02200
C379        C  0.16488367  0.82266870  0.14460116     0.30300
C380        C  0.19379698  0.80024867  0.13286736    -0.19200
C381        C  0.20649949  0.80032872  0.09658124    -0.28600
C382        C  0.18701313  0.82384653  0.07230955     0.44300
C383        C  0.11745473  0.87116748  0.13081110     0.05500
O384        O  0.15216061  0.81964740  0.17937250    -0.57100
H385        H  0.20461610  0.78213580  0.15254883     0.18400
O386        O  0.19591257  0.82583532  0.03626778    -0.63900
H387        H  0.14612039  0.86457829  0.06526727     0.16900
C388        C  0.12385544  0.90107107  0.15361863     0.29100
C389        C  0.09722821  0.92831041  0.15703718    -0.24700
C390        C  0.06413103  0.92630469  0.13766271    -0.24000
C391        C  0.05694860  0.89531710  0.11654226     0.40600
C392        C  0.08347738  0.86823009  0.11313950    -0.26500
O393        O  0.15721096  0.90544338  0.17015468    -0.58400
H394        H  0.10330646  0.95196475  0.17328650     0.16200
O395        O  0.02439958  0.89166459  0.09829546    -0.59800
H396        H  0.07808266  0.84542941  0.09547759     0.14700
H397        H  0.17417873  0.81670077  0.02295202     0.46500
H398        H  0.15329759  0.89786901  0.19560381     0.41900
H399        H  0.00664394  0.88283265  0.11659380     0.45300
H400        H  0.17133918  0.83071321  0.19479475     0.36800
C401        C  0.12925892  0.11008763  0.48903795    -0.27400
C402        C  0.13634321  0.12793894  0.52181767     0.02200
C403        C  0.11422653  0.12049503  0.55201909     0.30300
C404        C  0.08640129  0.09461871  0.54975250    -0.19200
C405        C  0.07962036  0.07575321  0.51739652    -0.28600
C406        C  0.10079272  0.08439735  0.48653982     0.44300
C407        C  0.16831181  0.15230469  0.52638531     0.05500
O408        O  0.11975654  0.13846560  0.58407076    -0.57100
H409        H  0.07013588  0.08923859  0.57365402     0.18400
O410        O  0.09492349  0.06700631  0.45427675    -0.63900
H411        H  0.14618191  0.11559949  0.46562423     0.16900
C412        C  0.19960791  0.13952826  0.54355227     0.29100
C413        C  0.22399880  0.16363446  0.55992140    -0.24700
C414        C  0.21789392  0.20186691  0.56160572    -0.24000
C415        C  0.18867239  0.21422036  0.53825989     0.40600
C416        C  0.16460549  0.18935957  0.52138590    -0.26500
O417        O  0.20471518  0.10306776  0.54786656    -0.58400
H418        H  0.24607387  0.15059499  0.57417146     0.16200
O419        O  0.17975107  0.25008151  0.53541454    -0.59800
H420        H  0.14066799  0.19934363  0.50723772     0.14700
H421        H  0.07790101  0.08278402  0.44070194     0.46500
H422        H  0.22030945  0.09570241  0.52723247     0.41900
H423        H  0.15276837  0.25260055  0.53906651     0.45300
H424        H  0.13749284  0.12352391  0.59771981     0.36800
C425        C  0.28747189  0.08342315  0.69324531    -0.27400
C426        C  0.29889290  0.11953463  0.69717613     0.02200
C427        C  0.31752893  0.12965908  0.72910320     0.30300
C428        C  0.32281625  0.10426734  0.75705313    -0.19200
C429        C  0.30938149  0.06876554  0.75375263    -0.28600
C430        C  0.29226238  0.05832876  0.72124155     0.44300
C431        C  0.28594245  0.14690283  0.67038711     0.05500
O432        O  0.32774359  0.16494561  0.73454067    -0.57100
H433        H  0.33555213  0.11288970  0.78211768     0.18400
O434        O  0.27986078  0.02358226  0.71670958    -0.63900
H435        H  0.27323361  0.07504243  0.66888777     0.16900
C436        C  0.30963796  0.16908507  0.65025810     0.29100
C437        C  0.29532862  0.19390373  0.62496254    -0.24700
C438        C  0.25751968  0.19807026  0.61876840    -0.24000
C439        C  0.23409567  0.17481177  0.63970622     0.40600
C440        C  0.24836435  0.15002418  0.66450630    -0.26500
O441        O  0.34685895  0.16531204  0.65357429    -0.58400
H442        H  0.31420269  0.20868235  0.60949223     0.16200
O443        O  0.19684430  0.17449722  0.63461389    -0.59800
H444        H  0.22955193  0.13289421  0.67940042     0.14700
H445        H  0.25327524  0.02444416  0.72239434     0.46500
H446        H  0.35559503  0.18806814  0.66501967     0.41900
H447        H  0.18612872  0.18300518  0.65772125     0.45300
H448        H  0.35469689  0.16532399  0.73141065     0.36800
C449        C  0.20048371  0.27487167  0.67776929    -0.27400
C450        C  0.16269871  0.27367271  0.67206754     0.02200
C451        C  0.14961078  0.25882247  0.63983588     0.30300
C452        C  0.17396532  0.24477414  0.61431227    -0.19200
C453        C  0.21282248  0.24688568  0.61789751    -0.28600
C454        C  0.22536724  0.26130955  0.65194250     0.44300
C455        C  0.13691627  0.28135408  0.70223311     0.05500
O456        O  0.11262407  0.25464994  0.63440258    -0.57100
H457        H  0.16074737  0.22835685  0.59452002     0.18400
O458        O  0.26136980  0.25748534  0.66243326    -0.63900
H459        H  0.21077301  0.28440067  0.70359292     0.16900
C460        C  0.13673431  0.25916495  0.73315226     0.29100
C461        C  0.10951569  0.26329991  0.75949687    -0.24700
C462        C  0.08267555  0.29017984  0.75623420    -0.24000
C463        C  0.08351799  0.31325715  0.72587895     0.40600
C464        C  0.11017273  0.30837681  0.69887627    -0.26500
O465        O  0.16186313  0.23193392  0.73681450    -0.58400
H466        H  0.10935052  0.24528609  0.78258975     0.16200
O467        O  0.05706645  0.33907934  0.72121879    -0.59800
H468        H  0.10963561  0.32531715  0.67499561     0.14700
H469        H  0.26849677  0.27954505  0.67605427     0.46500
H470        H  0.18061403  0.24150925  0.75375570     0.41900
H471        H  0.06863668  0.36205260  0.72902932     0.45300
H472        H  0.10664033  0.23024915  0.64388102     0.36800
C473        C  0.89518251  0.69447544  0.97717654    -0.27400
C474        C  0.86597423  0.71838713  0.97100556     0.02200
C475        C  0.86199260  0.73388698  0.93632550     0.30300
C476        C  0.88838591  0.72779902  0.90967987    -0.19200
C477        C  0.91835115  0.70522264  0.91635711    -0.28600
C478        C  0.92104140  0.68750867  0.94995700     0.44300
C479        C  0.84230774  0.73058077  0.00144798     0.05500
O480        O  0.83312639  0.75630159  0.92870297    -0.57100
H481        H  0.88572770  0.74128660  0.88379807     0.18400
O482        O  0.95049213  0.66589870  0.95755306    -0.63900
H483        H  0.89908375  0.68264136  0.00367899     0.16900
C484        C  0.82494308  0.70662455  0.02546375     0.29100
C485        C  0.80165620  0.71994687  0.05265929    -0.24700
C486        C  0.79384128  0.75695858  0.05651214    -0.24000
C487        C  0.81467231  0.78087769  0.03367753     0.40600
C488        C  0.83781594  0.76757396  0.00685892    -0.26500
O489        O  0.83000168  0.67005628  0.02236219    -0.58400
H490        H  0.79042930  0.70098192  0.07074344     0.16200
O491        O  0.81159825  0.81776610  0.03646374    -0.59800
H492        H  0.85238428  0.78670676  0.98993010     0.14700
H493        H  0.94303509  0.64135221  0.94960876     0.46500
H494        H  0.80973029  0.66147495  0.00667105     0.41900
H495        H  0.83608599  0.82676195  0.04384017     0.45300
H496        H  0.81553962  0.74124006  0.91473590     0.36800
C497        C  0.71433780  0.79929469  0.98878041    -0.27400
C498        C  0.70966538  0.83652488  0.99212874     0.02200
C499        C  0.72160395  0.85343562  0.02358811     0.30300
C500        C  0.73783513  0.83341777  0.05106682    -0.19200
C501        C  0.74004342  0.79485859  0.05127890    -0.28600
C502        C  0.72966907  0.77857089  0.01706370     0.44300
C503        C  0.70051295  0.85925462  0.96047858     0.05500
O504        O  0.72111751  0.89046682  0.02629733    -0.57100
H505        H  0.75210096  0.85033094  0.06965448     0.18400
O506        O  0.73858063  0.74326809  0.00926089    -0.63900
H507        H  0.70799708  0.78641185  0.96317928     0.16900
C508        C  0.72704103  0.86487271  0.93354287     0.29100
C509        C  0.72233865  0.89231335  0.90805197    -0.24700
C510        C  0.69132424  0.91477042  0.90879041    -0.24000
C511        C  0.66393157  0.90813290  0.93485332     0.40600
C512        C  0.66886720  0.88076139  0.96072238    -0.26500
O513        O  0.75867228  0.84493833  0.93312840    -0.58400
H514        H  0.74362024  0.89657791  0.88808637     0.16200
O515        O  0.63359326  0.92976192  0.93694319    -0.59800
H516        H  0.64872891  0.87729074  0.98195186     0.14700
H517        H  0.71735042  0.73224174  0.99645153     0.46500
H518        H  0.77576366  0.85779076  0.94967473     0.41900
H519        H  0.61456544  0.91714423  0.92250112     0.45300
H520        H  0.74486353  0.89871333  0.01612535     0.36800
C521        C  0.78888358  0.85954279  0.14114518    -0.27400
C522        C  0.82694654  0.85814169  0.13881327     0.02200
C523        C  0.84338018  0.82667329  0.12655861     0.30300
C524        C  0.82206863  0.79886550  0.11252780    -0.19200
C525        C  0.78308235  0.80068147  0.10910041    -0.28600
C526        C  0.76667279  0.83124092  0.12792461     0.44300
C527        C  0.84988095  0.89084197  0.14266771     0.05500
O528        O  0.88087390  0.82405714  0.12505898    -0.57100
H529        H  0.83808439  0.77750552  0.10081839     0.18400
O530        O  0.72952219  0.83732286  0.13135944    -0.63900
H531        H  0.77606738  0.88378762  0.15154899     0.16900
C532        C  0.85562475  0.91290421  0.11223413     0.29100
C533        C  0.88440254  0.93794083  0.11198170    -0.24700
C534        C  0.90786672  0.94155170  0.14195127    -0.24000
C535        C  0.90070397  0.92079442  0.17325304     0.40600
C536        C  0.87215997  0.89532181  0.17322799    -0.26500
O537        O  0.83435848  0.90877371  0.08186194    -0.58400
H538        H  0.88890472  0.95390573  0.08783189     0.16200
O539        O  0.92284760  0.92337216  0.20312496    -0.59800
H540        H  0.86851037  0.87782745  0.19643982     0.14700
H541        H  0.71576264  0.82423154  0.11228694     0.46500
H542        H  0.84785415  0.89149037  0.06630487     0.41900
H543        H  0.91049116  0.94096856  0.21927626     0.45300
H544        H  0.88771758  0.83264458  0.10053610     0.36800
C545        C  0.10471364  0.68912581  0.70864031    -0.27400
C546        C  0.13272842  0.71486096  0.71380759     0.02200
C547        C  0.13576835  0.73204486  0.74775345     0.30300
C548        C  0.10955166  0.72598332  0.77453183    -0.19200
C549        C  0.08037323  0.70196135  0.76884797    -0.28600
C550        C  0.07865910  0.68248659  0.73602055     0.44300
C551        C  0.15686317  0.72663689  0.68343041     0.05500
O552        O  0.16371519  0.75596343  0.75461147    -0.57100
H553        H  0.11165983  0.74077835  0.79977247     0.18400
O554        O  0.05066360  0.65848548  0.72968476    -0.63900
H555        H  0.10198976  0.67548582  0.68283543     0.16900
C556        C  0.18014945  0.70287063  0.66499757     0.29100
C557        C  0.20627264  0.71639755  0.64042037    -0.24700
C558        C  0.20816796  0.75324365  0.63049638    -0.24000
C559        C  0.18510676  0.77691027  0.65112778     0.40600
C560        C  0.15958565  0.76347455  0.67588935    -0.26500
O561        O  0.17980757  0.66670244  0.67301490    -0.58400
H562        H  0.22685148  0.69796951  0.63220213     0.16200
O563        O  0.18972506  0.81370832  0.65008542    -0.59800
H564        H  0.14275479  0.78250912  0.69066958     0.14700
H565        H  0.03118601  0.67281622  0.71769378     0.46500
H566        H  0.16656295  0.65509926  0.65263082     0.41900
H567        H  0.16643065  0.82356865  0.64054773     0.45300
H568        H  0.18414731  0.74096987  0.76383720     0.36800
C569        C  0.27107174  0.86542007  0.74220736    -0.27400
C570        C  0.30132091  0.85677950  0.72059313     0.02200
C571        C  0.33423412  0.87623148  0.72549879     0.30300
C572        C  0.33599008  0.90471887  0.75068049    -0.19200
C573        C  0.30508746  0.91452873  0.77120989    -0.28600
C574        C  0.27259510  0.89398936  0.76705951     0.44300
C575        C  0.29613843  0.83064432  0.69033200     0.05500
O576        O  0.36460905  0.86809953  0.70532292    -0.57100
H577        H  0.36136504  0.91971947  0.75347441     0.18400
O578        O  0.24198214  0.90150038  0.78714272    -0.63900
H579        H  0.24548007  0.85089521  0.73869239     0.16900
C580        C  0.28298413  0.79560394  0.69603193     0.29100
C581        C  0.26975691  0.77512459  0.66683721    -0.24700
C582        C  0.26584369  0.78957385  0.63105939    -0.24000
C583        C  0.28736424  0.82187015  0.62539034     0.40600
C584        C  0.30088310  0.84212431  0.65484533    -0.26500
O585        O  0.28167520  0.78145187  0.73027583    -0.58400
H586        H  0.26056418  0.74814612  0.67326322     0.16200
O587        O  0.29721627  0.83360061  0.59173140    -0.59800
H588        H  0.31397250  0.86796066  0.64979303     0.14700
H589        H  0.22637293  0.91658844  0.77124117     0.46500
H590        H  0.30660397  0.77183761  0.73479343     0.41900
H591        H  0.29348660  0.86014516  0.59065883     0.45300
H592        H  0.37598187  0.84714162  0.71767414     0.36800
C593        C  0.15415992  0.80778070  0.54682616    -0.27400
C594        C  0.15941320  0.84499932  0.54817036     0.02200
C595        C  0.19047071  0.85853691  0.56562412     0.30300
C596        C  0.21532919  0.83493589  0.58209396    -0.19200
C597        C  0.21190163  0.79657075  0.58053432    -0.28600
C598        C  0.17872242  0.78394584  0.56357453     0.44300
C599        C  0.12870959  0.86934518  0.53879181     0.05500
O600        O  0.19465997  0.89509501  0.57043800    -0.57100
H601        H  0.23415436  0.84822162  0.59952876     0.18400
O602        O  0.16691210  0.74898813  0.56730435    -0.63900
H603        H  0.12897274  0.79711306  0.53542798     0.16900
C604        C  0.12906051  0.89092563  0.50748516     0.29100
C605        C  0.10060079  0.91570695  0.50120689    -0.24700
C606        C  0.07198909  0.91968431  0.52634169    -0.24000
C607        C  0.07100872  0.89667330  0.55680395     0.40600
C608        C  0.09924014  0.87197964  0.56285406    -0.26500
O609        O  0.15706680  0.88797652  0.48299555    -0.58400
H610        H  0.10171333  0.93282397  0.47747765     0.16200
O611        O  0.04280809  0.89843372  0.58122999    -0.59800
H612        H  0.09856075  0.85528737  0.58692769     0.14700
H613        H  0.14672893  0.74964873  0.58529621     0.46500
H614        H  0.17490146  0.90700529  0.48989446     0.41900
H615        H  0.02347470  0.88231079  0.57131749     0.45300
H616        H  0.21176765  0.90286734  0.55108877     0.36800
C617        C  0.66681134  0.12513670  0.72589087    -0.27400
C618        C  0.69754908  0.12512858  0.70302401     0.02200
C619        C  0.72363914  0.09747868  0.70663857     0.30300
C620        C  0.71952136  0.07099969  0.73321727    -0.19200
C621        C  0.68926217  0.07101403  0.75661449    -0.28600
C622        C  0.66244817  0.09816289  0.75250950     0.44300
C623        C  0.70609747  0.15623840  0.67904897     0.05500
O624        O  0.75446128  0.09728398  0.68546192    -0.57100
H625        H  0.74050621  0.05051822  0.73582357     0.18400
O626        O  0.63285801  0.09955577  0.77528196    -0.63900
H627        H  0.64693487  0.14671626  0.72394275     0.16900
C628        C  0.69698810  0.15619204  0.64224226     0.29100
C629        C  0.71349539  0.18113562  0.61842458    -0.24700
C630        C  0.74075224  0.20656011  0.62977604    -0.24000
C631        C  0.75147941  0.20295646  0.66732692     0.40600
C632        C  0.73214615  0.18079883  0.69124982    -0.26500
O633        O  0.67403141  0.13007857  0.62865793    -0.58400
H634        H  0.70747266  0.17705773  0.59045516     0.16200
O635        O  0.78449759  0.21487940  0.68039310    -0.59800
H636        H  0.74162489  0.17893909  0.71901068     0.14700
H637        H  0.64141958  0.11336896  0.79669571     0.46500
H638        H  0.69033991  0.10999428  0.62118907     0.41900
H639        H  0.80222615  0.19532949  0.67496379     0.45300
H640        H  0.74747015  0.08349256  0.66349446     0.36800
C641        C  0.80728276  0.29496586  0.67411477    -0.27400
C642        C  0.84438821  0.28713246  0.67037193     0.02200
C643        C  0.85567153  0.26606551  0.64139362     0.30300
C644        C  0.82986997  0.24976973  0.61890369    -0.19200
C645        C  0.79106041  0.25495721  0.62252065    -0.28600
C646        C  0.78078743  0.27992919  0.65064574     0.44300
C647        C  0.86997725  0.29286944  0.70082467     0.05500
O648        O  0.89200487  0.25750819  0.63735756    -0.57100
H649        H  0.84226625  0.23070445  0.60098020     0.18400
O650        O  0.74516424  0.28391564  0.66087970    -0.63900
H651        H  0.79830845  0.31036767  0.69741024     0.16900
C652        C  0.89647664  0.32051240  0.70050395     0.29100
C653        C  0.92335030  0.32188114  0.72770575    -0.24700
C654        C  0.92479196  0.29513500  0.75468481    -0.24000
C655        C  0.89808740  0.26751751  0.75480855     0.40600
C656        C  0.87075930  0.26684342  0.72830823    -0.26500
O657        O  0.89722385  0.34529337  0.67296988    -0.58400
H658        H  0.94384427  0.34310937  0.72699310     0.16200
O659        O  0.89805808  0.24137213  0.78109481    -0.59800
H660        H  0.85080151  0.24508267  0.72840786     0.14700
H661        H  0.74053787  0.31035110  0.66111849     0.46500
H662        H  0.88173054  0.36554649  0.68143110     0.41900
H663        H  0.91061312  0.22033011  0.77005605     0.45300
H664        H  0.90139094  0.27460071  0.61887683     0.36800
C665        C  0.86986844  0.11296693  0.49808452    -0.27400
C666        C  0.87217271  0.13650087  0.52789875     0.02200
C667        C  0.90337452  0.13530624  0.55017910     0.30300
C668        C  0.93017675  0.10909055  0.54445685    -0.19200
C669        C  0.92697271  0.08378585  0.51622645    -0.28600
C670        C  0.89727611  0.08684961  0.49194302     0.44300
C671        C  0.84008060  0.15787173  0.54009336     0.05500
O672        O  0.90651687  0.15793652  0.57945003    -0.57100
H673        H  0.95300598  0.10769291  0.56316719     0.18400
O674        O  0.89365720  0.06326409  0.46352053    -0.63900
H675        H  0.84594771  0.11358318  0.48073663     0.16900
C676        C  0.83454942  0.19360096  0.52946743     0.29100
C677        C  0.80887651  0.21528304  0.54769343    -0.24700
C678        C  0.78698024  0.20265024  0.57741766    -0.24000
C679        C  0.79451833  0.16567146  0.58781328     0.40600
C680        C  0.81955529  0.14432356  0.56864714    -0.26500
O681        O  0.85562902  0.20840144  0.50255761    -0.58400
H682        H  0.80936598  0.24295379  0.53996472     0.16200
O683        O  0.78221407  0.15060070  0.61937048    -0.59800
H684        H  0.82524318  0.11726132  0.57837014     0.14700
H685        H  0.87724879  0.04383554  0.47240989     0.46500
H686        H  0.87584885  0.22116326  0.51523861     0.41900
H687        H  0.76721444  0.12936722  0.61219342     0.45300
H688        H  0.91500282  0.18137566  0.56939726     0.36800
C689        C  0.84461697  0.70873388  0.64595985    -0.27400
C690        C  0.83859937  0.71384705  0.68288517     0.02200
C691        C  0.80697492  0.73164852  0.69396493     0.30300
C692        C  0.78295491  0.74604793  0.66835530    -0.19200
C693        C  0.78777771  0.74157172  0.63015261    -0.28600
C694        C  0.82006115  0.72204228  0.61971017     0.44300
C695        C  0.86871199  0.70777560  0.70910295     0.05500
O696        O  0.80132495  0.73879730  0.72996998    -0.57100
H697        H  0.76263913  0.76301766  0.68015519     0.18400
O698        O  0.83166510  0.72199751  0.58432977    -0.63900
H699        H  0.87010096  0.69659237  0.63723610     0.16900
C700        C  0.86704751  0.68053140  0.73563624     0.29100
C701        C  0.89491983  0.67786070  0.76181436    -0.24700
C702        C  0.92417315  0.70275437  0.76243748    -0.24000
C703        C  0.92555793  0.72994302  0.73569260     0.40600
C704        C  0.89829694  0.73194403  0.70916377    -0.26500
O705        O  0.83782606  0.65717669  0.73689788    -0.58400
H706        H  0.89300860  0.65710452  0.78237619     0.16200
O707        O  0.95376494  0.75451214  0.73490692    -0.59800
H708        H  0.89964931  0.75326601  0.68911629     0.14700
H709        H  0.84110467  0.69742302  0.57908431     0.46500
H710        H  0.84193843  0.63974495  0.71690325     0.41900
H711        H  0.94394014  0.77658340  0.74663809     0.45300
H712        H  0.78215771  0.72135210  0.73771973     0.36800
C713        C  0.72461727  0.85304345  0.64592641    -0.27400
C714        C  0.70290191  0.83903514  0.67335287     0.02200
C715        C  0.69408317  0.80225435  0.67253680     0.30300
C716        C  0.71038248  0.77944804  0.64662135    -0.19200
C717        C  0.73804121  0.79181358  0.62224353    -0.28600
C718        C  0.74173984  0.83077470  0.62064478     0.44300
C719        C  0.69659196  0.86215829  0.70556063     0.05500
O720        O  0.67244499  0.78757776  0.69907085    -0.57100
H721        H  0.70574163  0.75118393  0.65096424     0.18400
O722        O  0.76246269  0.84845146  0.59527203    -0.63900
H723        H  0.73045626  0.88180349  0.64544003     0.16900
C724        C  0.72727645  0.87477403  0.72490637     0.29100
C725        C  0.72327933  0.90108629  0.75146870    -0.24700
C726        C  0.68875012  0.91535626  0.76005535    -0.24000
C727        C  0.65748342  0.90096166  0.74247790     0.40600
C728        C  0.66160040  0.87468163  0.71509950    -0.26500
O729        O  0.76180183  0.86262894  0.71684776    -0.58400
H730        H  0.74776276  0.91077357  0.76498835     0.16200
O731        O  0.62311383  0.91332092  0.75065546    -0.59800
H732        H  0.63772382  0.86505239  0.70053419     0.14700
H733        H  0.74499257  0.86185778  0.57970680     0.46500
H734        H  0.76370441  0.83861381  0.72873501     0.41900
H735        H  0.61421836  0.89727681  0.77025955     0.45300
H736        H  0.68973387  0.77907082  0.71796200     0.36800
C737        C  0.84963202  0.82750782  0.58590422    -0.27400
C738        C  0.84512143  0.83931570  0.55047665     0.02200
C739        C  0.81638718  0.82488270  0.52996852     0.30300
C740        C  0.79201327  0.79981710  0.54553890    -0.19200
C741        C  0.79512361  0.78751674  0.58168107    -0.28600
C742        C  0.82457901  0.80401890  0.60205483     0.44300
C743        C  0.86727540  0.87067029  0.53808776     0.05500
O744        O  0.81014317  0.83705402  0.49546857    -0.57100
H745        H  0.76860446  0.79414133  0.52979840     0.18400
O746        O  0.82766854  0.80044273  0.63884005    -0.63900
H747        H  0.87121045  0.83912257  0.60245522     0.16900
C748        C  0.86624842  0.90317386  0.55791564     0.29100
C749        C  0.89116762  0.93086082  0.55040985    -0.24700
C750        C  0.91750375  0.92698568  0.52313540    -0.24000
C751        C  0.91715438  0.89539683  0.50165993     0.40600
C752        C  0.89200274  0.86746666  0.50918715    -0.26500
O753        O  0.84107375  0.90787966  0.58506648    -0.58400
H754        H  0.89055665  0.95515573  0.56679396     0.16200
O755        O  0.94249959  0.89066380  0.47473378    -0.59800
H756        H  0.89306947  0.84262461  0.49370259     0.14700
H757        H  0.81462305  0.82148094  0.64925751     0.46500
H758        H  0.85513706  0.90603761  0.60794015     0.41900
H759        H  0.96327118  0.87794146  0.48638565     0.45300
H760        H  0.79112677  0.85595709  0.49792297     0.36800
C761        C  0.60693950  0.38473514  0.99061545    -0.27400
C762        C  0.63171465  0.38087290  0.01933457     0.02200
C763        C  0.63193470  0.40663040  0.04737808     0.30300
C764        C  0.60710700  0.43529778  0.04692445    -0.19200
C765        C  0.58160420  0.43898423  0.01869014    -0.28600
C766        C  0.58222395  0.41378395  0.98992423     0.44300
C767        C  0.65542343  0.34863645  0.02240462     0.05500
O768        O  0.65567356  0.40334887  0.07600193    -0.57100
H769        H  0.60731897  0.45432247  0.06922293     0.18400
O770        O  0.55732251  0.41590362  0.96222612    -0.63900
H771        H  0.60627108  0.36480803  0.96913657     0.16900
C772        C  0.64124430  0.31630887  0.03577389     0.29100
C773        C  0.66471554  0.29033320  0.05039272    -0.24700
C774        C  0.70323797  0.29627484  0.05469202    -0.24000
C775        C  0.71724791  0.32724410  0.03520575     0.40600
C776        C  0.69319380  0.35250245  0.01954022    -0.26500
O777        O  0.60405737  0.31106504  0.03758197    -0.58400
H778        H  0.65089396  0.26736486  0.06202561     0.16200
O779        O  0.75390000  0.33609613  0.03530251    -0.59800
H780        H  0.70420459  0.37726839  0.00822030     0.14700
H781        H  0.56980705  0.42998937  0.94304420     0.46500
H782        H  0.59699959  0.31861422  0.06236765     0.41900
H783        H  0.75650053  0.36236300  0.04028699     0.45300
H784        H  0.64354495  0.38635364  0.09299442     0.36800
C785        C  0.59626898  0.65262907  0.05407922    -0.27400
C786        C  0.62448970  0.65550979  0.02858963     0.02200
C787        C  0.62579683  0.63036704  0.99987133     0.30300
C788        C  0.59975152  0.60226925  0.99772530    -0.19200
C789        C  0.57286694  0.59816766  0.02465184    -0.28600
C790        C  0.57104140  0.62408228  0.05263310     0.44300
C791        C  0.65601444  0.67956491  0.03728511     0.05500
O792        O  0.65351517  0.63191761  0.97490998    -0.57100
H793        H  0.60172211  0.58263960  0.97606345     0.18400
O794        O  0.54471009  0.62163515  0.07896739    -0.63900
H795        H  0.59523225  0.67125224  0.07670072     0.16900
C796        C  0.65232092  0.71693557  0.04203543     0.29100
C797        C  0.67997733  0.73683720  0.05975207    -0.24700
C798        C  0.71081354  0.72014451  0.07635475    -0.24000
C799        C  0.71533123  0.68226611  0.06735433     0.40600
C800        C  0.68857809  0.66339157  0.04772667    -0.26500
O801        O  0.62143199  0.73420431  0.03002628    -0.58400
H802        H  0.67531757  0.76549825  0.06325840     0.16200
O803        O  0.74485803  0.66214614  0.07835125    -0.59800
H804        H  0.69206297  0.63459552  0.04353174     0.14700
H805        H  0.55716752  0.61049676  0.10005299     0.46500
H806        H  0.60703643  0.73965700  0.05209482     0.41900
H807        H  0.73510641  0.64156438  0.09274957     0.45300
H808        H  0.64593791  0.65077311  0.95740480     0.36800
C809        C  0.35893795  0.60802782  0.03568521    -0.27400
C810        C  0.36726335  0.63922210  0.05603656     0.02200
C811        C  0.40423577  0.64547526  0.06594663     0.30300
C812        C  0.43111939  0.61972316  0.05824811    -0.19200
C813        C  0.42245976  0.58823364  0.03899256    -0.28600
C814        C  0.38634416  0.58294612  0.02671423     0.44300
C815        C  0.33759681  0.66386400  0.06928061     0.05500
O816        O  0.41440199  0.67646127  0.08378959    -0.57100
H817        H  0.45896322  0.62436103  0.06740451     0.18400
O818        O  0.37723958  0.55266334  0.00721751    -0.63900
H819        H  0.33094852  0.60220489  0.02792541     0.16900
C820        C  0.30857848  0.67596402  0.04733129     0.29100
C821        C  0.28308835  0.70119559  0.06080777    -0.24700
C822        C  0.28749160  0.71801098  0.09492288    -0.24000
C823        C  0.31359491  0.70086577  0.11839089     0.40600
C824        C  0.33815015  0.67506307  0.10536248    -0.26500
O825        O  0.30592847  0.66500494  0.01196779    -0.58400
H826        H  0.26095610  0.70792045  0.04322279     0.16200
O827        O  0.31712962  0.71097863  0.15395335    -0.59800
H828        H  0.35829786  0.66410172  0.12385483     0.14700
H829        H  0.37341436  0.53337013  0.02546174     0.46500
H830        H  0.28428808  0.64874249  0.01105046     0.41900
H831        H  0.30937633  0.68965200  0.16830095     0.45300
H832        H  0.41605857  0.69530675  0.06477031     0.36800
C833        C  0.31519296  0.34510618  0.03034672    -0.27400
C834        C  0.35192147  0.34180627  0.04028530     0.02200
C835        C  0.36274770  0.31010044  0.05749573     0.30300
C836        C  0.33656836  0.28529211  0.06946097    -0.19200
C837        C  0.29780075  0.29117824  0.06658445    -0.28600
C838        C  0.28844315  0.31970733  0.04164772     0.44300
C839        C  0.37797492  0.37279708  0.03685679     0.05500
O840        O  0.39901322  0.30412135  0.06512671    -0.57100
H841        H  0.34803116  0.26254910  0.08372785     0.18400
O842        O  0.25285376  0.32789243  0.03333004    -0.63900
H843        H  0.30647627  0.36906242  0.01591662     0.16900
C844        C  0.38665896  0.38870649  0.00336294     0.29100
C845        C  0.41186567  0.41758989  0.00170252    -0.24700
C846        C  0.42852736  0.43146102  0.03326998    -0.24000
C847        C  0.41939274  0.41544967  0.06681709     0.40600
C848        C  0.39440154  0.38667097  0.06831087    -0.26500
O849        O  0.37178336  0.37531914  0.97200447    -0.58400
H850        H  0.41845077  0.42904911  0.97555036     0.16200
O851        O  0.43430018  0.42789562  0.09856249    -0.59800
H852        H  0.38769424  0.37508775  0.09440673     0.14700
H853        H  0.25189841  0.33241515  0.00691635     0.46500
H854        H  0.35129605  0.39179907  0.96608913     0.41900
H855        H  0.45532426  0.41172887  0.10353488     0.45300
H856        H  0.40882473  0.29156316  0.04349330     0.36800
C857        C  0.34677595  0.24903760  0.49767488    -0.27400
C858        C  0.35070275  0.21211193  0.49179096     0.02200
C859        C  0.33006763  0.18797738  0.51290353     0.30300
C860        C  0.30474601  0.20115037  0.53851366    -0.19200
C861        C  0.29863411  0.23852261  0.54358896    -0.28600
C862        C  0.32122744  0.26240294  0.52223128     0.44300
C863        C  0.37498571  0.20038722  0.46172874     0.05500
O864        O  0.33411114  0.15141457  0.50845420    -0.57100
H865        H  0.29086973  0.18158935  0.55442052     0.18400
O866        O  0.31893516  0.29936060  0.52605370    -0.63900
H867        H  0.36318999  0.26803283  0.48228202     0.16900
C868        C  0.36877966  0.21389397  0.42659056     0.29100
C869        C  0.39485913  0.20891811  0.39943206    -0.24700
C870        C  0.42700062  0.18952104  0.40621217    -0.24000
C871        C  0.43250386  0.17418941  0.44069749     0.40600
C872        C  0.40666029  0.17991315  0.46835530    -0.26500
O873        O  0.33787094  0.23347131  0.41895324    -0.58400
H874        H  0.39023782  0.22079072  0.37303243     0.16200
O875        O  0.46436554  0.15623890  0.44843556    -0.59800
H876        H  0.41217249  0.16986109  0.49532319     0.14700
H877        H  0.31275899  0.30917110  0.50175949     0.46500
H878        H  0.31805605  0.21534354  0.41625957     0.41900
H879        H  0.45908712  0.13049541  0.44300671     0.45300
H880        H  0.31254587  0.14360419  0.49407740     0.36800
C881        C  0.68546918  0.18815852  0.50384725    -0.27400
C882        C  0.64983508  0.20076732  0.50328816     0.02200
C883        C  0.63905821  0.22574368  0.52930081     0.30300
C884        C  0.66490074  0.24090757  0.55273710    -0.19200
C885        C  0.70291444  0.23115405  0.55296437    -0.28600
C886        C  0.71183848  0.20291472  0.52733320     0.44300
C887        C  0.62739992  0.19543226  0.47042680     0.05500
O888        O  0.60346753  0.23774470  0.53012716    -0.57100
H889        H  0.65389440  0.26340057  0.56720237     0.18400
O890        O  0.74688834  0.19410488  0.51899750    -0.63900
H891        H  0.69423597  0.16959407  0.48287455     0.16900
C892        C  0.62044569  0.22528554  0.44798199     0.29100
C893        C  0.59736841  0.22163192  0.41828360    -0.24700
C894        C  0.58161096  0.18809924  0.40944764    -0.24000
C895        C  0.59138132  0.15735398  0.42986869     0.40600
C896        C  0.61395082  0.16124784  0.46050354    -0.26500
O897        O  0.63580572  0.25843392  0.45517182    -0.58400
H898        H  0.59152225  0.24544864  0.40228060     0.16200
O899        O  0.57795858  0.12382883  0.42110538    -0.59800
H900        H  0.62036743  0.13782375  0.47685128     0.14700
H901        H  0.74892963  0.16767531  0.52324241     0.46500
H902        H  0.66082943  0.25735059  0.44481229     0.41900
H903        H  0.59716388  0.11265793  0.40580888     0.45300
H904        H  0.60410425  0.26274280  0.52049290     0.36800
C905        C  0.65110272  0.25955945  0.15688862    -0.27400
C906        C  0.65231512  0.22259909  0.16442880     0.02200
C907        C  0.67343226  0.20036677  0.14195238     0.30300
C908        C  0.69498480  0.21575524  0.11451195    -0.19200
C909        C  0.69730815  0.25323088  0.10869498    -0.28600
C910        C  0.67334217  0.27499559  0.13026935     0.44300
C911        C  0.63223217  0.20870930  0.19661679     0.05500
O912        O  0.67409431  0.16366840  0.14706075    -0.57100
H913        H  0.71027334  0.19811981  0.09846908     0.18400
O914        O  0.67119967  0.31171878  0.12535862    -0.63900
H915        H  0.63343276  0.27704640  0.17257341     0.16900
C916        C  0.63619394  0.22633901  0.23023321     0.29100
C917        C  0.61280077  0.21782146  0.25887410    -0.24700
C918        C  0.58538630  0.19149170  0.25497105    -0.24000
C919        C  0.58350955  0.17143047  0.22257689     0.40600
C920        C  0.60678962  0.18021599  0.19354998    -0.26500
O921        O  0.66280734  0.25220667  0.23517425    -0.58400
H922        H  0.61527710  0.23287437  0.28393168     0.16200
O923        O  0.55763903  0.14482469  0.21819477    -0.59800
H924        H  0.60350749  0.16613054  0.16805220     0.14700
H925        H  0.67975159  0.32276495  0.14830379     0.46500
H926        H  0.64956077  0.27548883  0.23751526     0.41900
H927        H  0.53590329  0.15719263  0.20795240     0.45300
H928        H  0.69423394  0.15942488  0.16452280     0.36800
C929        C  0.34087945  0.25972870  0.17218986    -0.27400
C930        C  0.34798374  0.22276301  0.17358313     0.02200
C931        C  0.32801870  0.19973324  0.15067557     0.30300
C932        C  0.30275754  0.21411268  0.12586399    -0.19200
C933        C  0.29595308  0.25150571  0.12280473    -0.28600
C934        C  0.31666112  0.27424017  0.14697523     0.44300
C935        C  0.37837776  0.20988654  0.19718258     0.05500
O936        O  0.33418198  0.16319095  0.15092039    -0.57100
H937        H  0.29172061  0.19559985  0.10724088     0.18400
O938        O  0.31612378  0.31122736  0.14386353    -0.63900
H939        H  0.35559436  0.27810997  0.18987617     0.16900
C940        C  0.41208164  0.22869897  0.19756211     0.29100
C941        C  0.43822848  0.22111169  0.22390653    -0.24700
C942        C  0.43236879  0.19383057  0.24952792    -0.24000
C943        C  0.40036963  0.17255740  0.24721627     0.40600
C944        C  0.37338573  0.18089583  0.22133725    -0.26500
O945        O  0.41930883  0.25553279  0.17295500    -0.58400
H946        H  0.46310657  0.23717373  0.22466576     0.16200
O947        O  0.39437224  0.14487853  0.27114320    -0.59800
H948        H  0.34791094  0.16582313  0.22133877     0.14700
H949        H  0.30661256  0.32046616  0.16725756     0.46500
H950        H  0.43072056  0.24313952  0.15208627     0.41900
H951        H  0.38115338  0.15599398  0.29174568     0.45300
H952        H  0.35373540  0.15918088  0.13278569     0.36800
C953        C  0.24243257  0.62582027  0.45552171    -0.27400
C954        C  0.20853771  0.63982158  0.46629068     0.02200
C955        C  0.17630996  0.62533603  0.45121716     0.30300
C956        C  0.17832846  0.59699863  0.42584540    -0.19200
C957        C  0.21236577  0.58249434  0.41522443    -0.28600
C958        C  0.24461251  0.59758865  0.43032185     0.44300
C959        C  0.20805409  0.66915103  0.49374541     0.05500
O960        O  0.14284757  0.63928479  0.46043435    -0.57100
H961        H  0.15314148  0.58644097  0.41441672     0.18400
O962        O  0.27853253  0.58464511  0.42121661    -0.63900
H963        H  0.26747670  0.63673151  0.46698094     0.16900
C964        C  0.20109184  0.66206650  0.53023585     0.29100
C965        C  0.21065182  0.68776639  0.55672003    -0.24700
C966        C  0.23110349  0.71938881  0.54809264    -0.24000
C967        C  0.22682435  0.72990612  0.51075197     0.40600
C968        C  0.21778861  0.70421253  0.48409397    -0.26500
O969        O  0.18767273  0.62902183  0.54062032    -0.58400
H970        H  0.20435381  0.68009959  0.58377446     0.16200
O971        O  0.22917975  0.76544170  0.50034490    -0.59800
H972        H  0.21899538  0.71160423  0.45576243     0.14700
H973        H  0.28732879  0.60070257  0.40157278     0.46500
H974        H  0.16137534  0.63316198  0.54597087     0.41900
H975        H  0.24621593  0.76632131  0.47944005     0.45300
H976        H  0.13337137  0.62316316  0.47969443     0.36800
C977        C  0.21620897  0.33786547  0.52466058    -0.27400
C978        C  0.22557170  0.33279195  0.48840110     0.02200
C979        C  0.23768202  0.29859496  0.47768106     0.30300
C980        C  0.24570195  0.27241017  0.50378371    -0.19200
C981        C  0.24508884  0.28013462  0.54183585    -0.28600
C982        C  0.22290433  0.31085104  0.55063147     0.44300
C983        C  0.22304775  0.36309719  0.46211931     0.05500
O984        O  0.24321895  0.29088427  0.44180437    -0.57100
H985        H  0.25473401  0.24646062  0.49371150     0.18400
O986        O  0.20227463  0.31220843  0.58149909    -0.63900
H987        H  0.20244241  0.36243194  0.53285642     0.16900
C988        C  0.19015792  0.38199330  0.45614075     0.29100
C989        C  0.18941700  0.41141106  0.43214771    -0.24700
C990        C  0.22125845  0.42261843  0.41377396    -0.24000
C991        C  0.25405691  0.40325182  0.41961569     0.40600
C992        C  0.25468660  0.37392739  0.44352721    -0.26500
O993        O  0.15854238  0.37178879  0.47338578    -0.58400
H994        H  0.16380386  0.42550282  0.42795576     0.16200
O995        O  0.28577851  0.41255355  0.40205262    -0.59800
H996        H  0.28023724  0.35974022  0.44789916     0.14700
H997        H  0.17628392  0.31033298  0.57376580     0.46500
H998        H  0.14777240  0.35253310  0.45796960     0.41900
H999        H  0.28515766  0.39886433  0.37898571     0.45300
H1000       H  0.22046938  0.27852121  0.43373656     0.36800
C1001       C  0.23221595  0.70201968  0.20122933    -0.27400
C1002       C  0.21801623  0.66993451  0.18756219     0.02200
C1003       C  0.21199460  0.66711847  0.15039068     0.30300
C1004       C  0.22301279  0.69516729  0.12725417    -0.19200
C1005       C  0.24072423  0.72744817  0.13960561    -0.28600
C1006       C  0.24387501  0.73012598  0.17845642     0.44300
C1007       C  0.21578009  0.63802175  0.21175738     0.05500
O1008       O  0.19725332  0.63611337  0.13604238    -0.57100
H1009       H  0.22081759  0.68964726  0.09867686     0.18400
O1010       O  0.25951077  0.75879192  0.19574724    -0.63900
H1011       H  0.23683800  0.70443536  0.23011755     0.16900
C1012       C  0.24762919  0.61803893  0.21921606     0.29100
C1013       C  0.24678549  0.58997884  0.24457348    -0.24700
C1014       C  0.21432742  0.58107069  0.26303146    -0.24000
C1015       C  0.18224207  0.60097874  0.25523108     0.40600
C1016       C  0.18314142  0.62912074  0.22964695    -0.26500
O1017       O  0.28016067  0.62664102  0.20274193    -0.58400
H1018       H  0.27183507  0.57532971  0.25001487     0.16200
O1019       O  0.15012745  0.59390184  0.27310930    -0.59800
H1020       H  0.15857717  0.64463755  0.22448289     0.14700
H1021       H  0.28356165  0.75015059  0.20474082     0.46500
H1022       H  0.27901156  0.61494349  0.17861800     0.41900
H1023       H  0.14954911  0.61138204  0.29349160     0.45300
H1024       H  0.21853881  0.62108421  0.12905610     0.36800
C1025       C  0.25590018  0.39512398  0.21359040    -0.27400
C1026       C  0.22533916  0.37318968  0.20599587     0.02200
C1027       C  0.19388710  0.37666985  0.22770449     0.30300
C1028       C  0.19286429  0.40268880  0.25545847    -0.19200
C1029       C  0.22312071  0.42542049  0.26238022    -0.28600
C1030       C  0.25511645  0.42080656  0.24144502     0.44300
C1031       C  0.22711056  0.34742393  0.17495299     0.05500
O1032       O  0.16377937  0.35525956  0.22164443    -0.57100
H1033       H  0.16818820  0.40519965  0.27149211     0.18400
O1034       O  0.28537332  0.44221550  0.24689362    -0.63900
H1035       H  0.28061921  0.39243724  0.19761693     0.16900
C1036       C  0.23795106  0.35954784  0.14084156     0.29100
C1037       C  0.24802901  0.33498505  0.11394368    -0.24700
C1038       C  0.24713484  0.29676062  0.11876143    -0.24000
C1039       C  0.23279519  0.28519772  0.15324297     0.40600
C1040       C  0.22263416  0.31030507  0.18015463    -0.26500
O1041       O  0.24188673  0.39587072  0.13430115    -0.58400
H1042       H  0.26009554  0.34807347  0.09147661     0.16200
O1043       O  0.23196384  0.24930146  0.16262384    -0.59800
H1044       H  0.21419777  0.30038599  0.20643198     0.14700
H1045       H  0.30210567  0.42755407  0.26210224     0.46500
H1046       H  0.21886152  0.40318991  0.12215841     0.41900
H1047       H  0.24980104  0.24640909  0.18276896     0.45300
H1048       H  0.14943530  0.36802602  0.20279460     0.36800
C1049       C  0.59432821  0.77298840  0.47615295    -0.27400
C1050       C  0.62728216  0.79261900  0.47539957     0.02200
C1051       C  0.63103643  0.82143660  0.45072357     0.30300
C1052       C  0.60306560  0.82838241  0.42554215    -0.19200
C1053       C  0.57138052  0.80678280  0.42464743    -0.28600
C1054       C  0.56653568  0.77992947  0.45117430     0.44300
C1055       C  0.65827272  0.78012497  0.49819028     0.05500
O1056       O  0.66308299  0.84080700  0.44892970    -0.57100
H1057       H  0.60714459  0.84920253  0.40534295     0.18400
O1058       O  0.53514563  0.75948188  0.45217284    -0.63900
H1059       H  0.59063345  0.75129173  0.49550073     0.16900
C1060       C  0.67632879  0.80293444  0.52265395     0.29100
C1061       C  0.70412152  0.78936377  0.54493202    -0.24700
C1062       C  0.71478847  0.75255569  0.54474495    -0.24000
C1063       C  0.69515382  0.72974910  0.51974341     0.40600
C1064       C  0.66827531  0.74379553  0.49679390    -0.26500
O1065       O  0.66598594  0.83834675  0.52632268    -0.58400
H1066       H  0.71659427  0.80852833  0.56219415     0.16200
O1067       O  0.69872365  0.69276510  0.52082560    -0.59800
H1068       H  0.65389895  0.72553069  0.47871063     0.14700
H1069       H  0.51824286  0.77288826  0.46833434     0.46500
H1070       H  0.64563547  0.83802499  0.54408763     0.41900
H1071       H  0.70581425  0.68514951  0.49602680     0.45300
H1072       H  0.65700413  0.86519060  0.45830381     0.36800
C1073       C  0.36283359  0.77425596  0.43187979    -0.27400
C1074       C  0.36387240  0.79335016  0.46468515     0.02200
C1075       C  0.39096556  0.82008654  0.46982733     0.30300
C1076       C  0.41738664  0.82621699  0.44283307    -0.19200
C1077       C  0.41733793  0.80561159  0.41086658    -0.28600
C1078       C  0.38946231  0.77980006  0.40539238     0.44300
C1079       C  0.33868921  0.78197070  0.49408629     0.05500
O1080       O  0.39352028  0.83826015  0.50209627    -0.57100
H1081       H  0.43897457  0.84579912  0.44767799     0.18400
O1082       O  0.38793412  0.75986838  0.37409928    -0.63900
H1083       H  0.34188821  0.75392877  0.42728559     0.16900
C1084       C  0.31351873  0.80556041  0.51011342     0.29100
C1085       C  0.28801940  0.79237413  0.53538188    -0.24700
C1086       C  0.28773770  0.75614860  0.54733441    -0.24000
C1087       C  0.31157208  0.73228822  0.52779604     0.40600
C1088       C  0.33718888  0.74543817  0.50313630    -0.26500
O1089       O  0.31222253  0.84117171  0.49990889    -0.58400
H1090       H  0.26657293  0.81041580  0.54270524     0.16200
O1091       O  0.30927797  0.69547207  0.53141836    -0.59800
H1092       H  0.35524658  0.72641299  0.48983131     0.14700
H1093       H  0.39827689  0.73596957  0.38046536     0.46500
H1094       H  0.29144189  0.84284494  0.48274270     0.41900
H1095       H  0.29483397  0.68696334  0.51032369     0.45300
H1096       H  0.38600298  0.86341347  0.49667137     0.36800
C1097       C  0.70635203  0.79054029  0.19610996    -0.27400
C1098       C  0.66840648  0.79335993  0.19275710     0.02200
C1099       C  0.65161920  0.77851093  0.16219938     0.30300
C1100       C  0.67253745  0.76196430  0.13528172    -0.19200
C1101       C  0.71162446  0.76184707  0.13533925    -0.28600
C1102       C  0.72764005  0.77413628  0.16894308     0.44300
C1103       C  0.64537334  0.80525472  0.22363738     0.05500
O1104       O  0.61410124  0.77735617  0.15962683    -0.57100
H1105       H  0.65619851  0.74633353  0.11714414     0.18400
O1106       O  0.76437222  0.77035052  0.17584874    -0.63900
H1107       H  0.71962608  0.80005745  0.22057527     0.16900
C1108       C  0.64423066  0.78437320  0.25538599     0.29100
C1109       C  0.61583722  0.78923446  0.28024069    -0.24700
C1110       C  0.58874399  0.81549822  0.27458568    -0.24000
C1111       C  0.59208648  0.83904119  0.24483340     0.40600
C1112       C  0.61991913  0.83338808  0.21921190    -0.26500
O1113       O  0.66864607  0.75678514  0.26065641    -0.58400
H1114       H  0.61419124  0.77137667  0.30340676     0.16200
O1115       O  0.56653918  0.86544185  0.23881477    -0.59800
H1116       H  0.62053750  0.84975755  0.19493548     0.14700
H1117       H  0.76616440  0.75320591  0.19637019     0.46500
H1118       H  0.68838649  0.76733098  0.27584025     0.41900
H1119       H  0.57666084  0.88738155  0.25058847     0.45300
H1120       H  0.60670499  0.75457919  0.17175560     0.36800
C1121       C  0.35734950  0.79259750  0.13941085    -0.27400
C1122       C  0.34760086  0.80940807  0.17177487     0.02200
C1123       C  0.31078934  0.81986784  0.17577859     0.30300
C1124       C  0.28397127  0.80615450  0.15173572    -0.19200
C1125       C  0.29270081  0.77852648  0.12659961    -0.28600
C1126       C  0.33054816  0.77894731  0.11594722     0.44300
C1127       C  0.37525531  0.81181031  0.20165143     0.05500
O1128       O  0.30018032  0.84093659  0.20442860    -0.57100
H1129       H  0.25620035  0.81361894  0.15702905     0.18400
O1130       O  0.34222569  0.76416183  0.08394505    -0.63900
H1131       H  0.38597724  0.78826981  0.13308222     0.16900
C1132       C  0.39525711  0.78073275  0.21159761     0.29100
C1133       C  0.42127836  0.78233962  0.23938690    -0.24700
C1134       C  0.42839528  0.81464728  0.25813839    -0.24000
C1135       C  0.40822344  0.84578248  0.24847813     0.40600
C1136       C  0.38189248  0.84416777  0.22056492    -0.26500
O1137       O  0.38832420  0.74802828  0.19536226    -0.58400
H1138       H  0.43579604  0.75782936  0.24637719     0.16200
O1139       O  0.41334148  0.87775867  0.26657820    -0.59800
H1140       H  0.36694175  0.86837813  0.21347994     0.14700
H1141       H  0.35300236  0.78446842  0.06995546     0.46500
H1142       H  0.40949795  0.74364517  0.17913722     0.41900
H1143       H  0.43168015  0.89122009  0.25217039     0.45300
H1144       H  0.29135155  0.82377299  0.22309017     0.36800
C1145       C  0.82340336  0.61420735  0.45724470    -0.27400
C1146       C  0.79205864  0.61639624  0.47924885     0.02200
C1147       C  0.76331262  0.59160372  0.47323457     0.30300
C1148       C  0.76530320  0.56667167  0.44458684    -0.19200
C1149       C  0.79610606  0.56509937  0.42172349    -0.28600
C1150       C  0.82579899  0.58859298  0.42906955     0.44300
C1151       C  0.78750344  0.64704880  0.50534340     0.05500
O1152       O  0.73202761  0.59314616  0.49369116    -0.57100
H1153       H  0.74225889  0.54871527  0.43999800     0.18400
O1154       O  0.85685890  0.58759498  0.40829154    -0.63900
H1155       H  0.84582796  0.63299616  0.46146211     0.16900
C1156       C  0.78256841  0.64177020  0.54242847     0.29100
C1157       C  0.77331275  0.67101852  0.56503465    -0.24700
C1158       C  0.76558850  0.70650804  0.55210008    -0.24000
C1159       C  0.77576663  0.71152632  0.51456929     0.40600
C1160       C  0.78605452  0.68228399  0.49237281    -0.26500
O1161       O  0.78765196  0.60812231  0.55717545    -0.58400
H1162       H  0.77362966  0.66465063  0.59287625     0.16200
O1163       O  0.77150307  0.74366548  0.49702961    -0.59800
H1164       H  0.79061028  0.68709830  0.46380272     0.14700
H1165       H  0.85212276  0.60442171  0.38798797     0.46500
H1166       H  0.76314155  0.60028032  0.56577404     0.41900
H1167       H  0.79642229  0.75078990  0.48877044     0.45300
H1168       H  0.73339436  0.57208158  0.51021398     0.36800
C1169       C  0.79623046  0.32694457  0.52214725    -0.27400
C1170       C  0.78085017  0.32688388  0.48775185     0.02200
C1171       C  0.75338907  0.30190438  0.47979295     0.30300
C1172       C  0.74060195  0.27822812  0.50640262    -0.19200
C1173       C  0.75409871  0.27806804  0.54285906    -0.28600
C1174       C  0.78267162  0.30440212  0.54970427     0.44300
C1175       C  0.78724621  0.35782884  0.46320968     0.05500
O1176       O  0.73699392  0.30193483  0.44634181    -0.57100
H1177       H  0.71729160  0.26274622  0.49768111     0.18400
O1178       O  0.79422883  0.31270020  0.58380735    -0.63900
H1179       H  0.81638979  0.34744262  0.52893609     0.16900
C1180       C  0.76301575  0.38727573  0.46410221     0.29100
C1181       C  0.76620939  0.41495800  0.43866357    -0.24700
C1182       C  0.79398688  0.41438984  0.41243515    -0.24000
C1183       C  0.81943689  0.38576099  0.41261092     0.40600
C1184       C  0.81570192  0.35744571  0.43773559    -0.26500
O1185       O  0.73518993  0.38851883  0.48898877    -0.58400
H1186       H  0.74665448  0.43692111  0.43930466     0.16200
O1187       O  0.84652674  0.38402613  0.38702027    -0.59800
H1188       H  0.83445066  0.33483620  0.43682643     0.14700
H1189       H  0.78370307  0.33666348  0.58981002     0.46500
H1190       H  0.74664137  0.39793206  0.51149235     0.41900
H1191       H  0.86841705  0.39479871  0.39873249     0.45300
H1192       H  0.71463567  0.31681991  0.44916363     0.36800
C1193       C  0.81098833  0.38809854  0.20424794    -0.27400
C1194       C  0.77995075  0.36564526  0.20280148     0.02200
C1195       C  0.75281750  0.36935676  0.22956627     0.30300
C1196       C  0.75657545  0.39558019  0.25678980    -0.19200
C1197       C  0.78749379  0.41837960  0.25828875    -0.28600
C1198       C  0.81519125  0.41386275  0.23200217     0.44300
C1199       C  0.77328799  0.34191007  0.17090977     0.05500
O1200       O  0.72202495  0.34799493  0.22883237    -0.57100
H1201       H  0.73505944  0.39817023  0.27677299     0.18400
O1202       O  0.84558176  0.43571913  0.23201403    -0.63900
H1203       H  0.83171424  0.38606633  0.18340155     0.16900
C1204       C  0.76003236  0.35701703  0.13903493     0.29100
C1205       C  0.74595976  0.33492972  0.11167862    -0.24700
C1206       C  0.74770088  0.29642944  0.11210204    -0.24000
C1207       C  0.76110418  0.28164252  0.14571133     0.40600
C1208       C  0.77350273  0.30432223  0.17410600    -0.26500
O1209       O  0.75705643  0.39386083  0.13577794    -0.58400
H1210       H  0.72891426  0.34962009  0.09358933     0.16200
O1211       O  0.75694735  0.24545194  0.15333006    -0.59800
H1212       H  0.78151166  0.29240408  0.19967191     0.14700
H1213       H  0.86454725  0.42192230  0.24529585     0.46500
H1214       H  0.73214432  0.39978217  0.14464466     0.41900
H1215       H  0.77898367  0.23756839  0.16689605     0.45300
H1216       H  0.70507456  0.36003146  0.21172536     0.36800
C1217       C  0.75935064  0.62947991  0.24336619    -0.27400
C1218       C  0.78000145  0.62904798  0.21130767     0.02200
C1219       C  0.80710179  0.60218528  0.20714336     0.30300
C1220       C  0.81194038  0.57567399  0.23409138    -0.19200
C1221       C  0.78940854  0.57501263  0.26495375    -0.28600
C1222       C  0.76345969  0.60266542  0.26961964     0.44300
C1223       C  0.77113808  0.65575566  0.18223084     0.05500
O1224       O  0.82812752  0.60082113  0.17645541    -0.57100
H1225       H  0.83218122  0.55470688  0.23010199     0.18400
O1226       O  0.74159747  0.60360593  0.29975261    -0.63900
H1227       H  0.73928599  0.65049980  0.24787090     0.16900
C1228       C  0.73468379  0.66139125  0.17200811     0.29100
C1229       C  0.72588472  0.68856508  0.14750456    -0.24700
C1230       C  0.75249914  0.71135656  0.13054413    -0.24000
C1231       C  0.78952443  0.70484477  0.14107794     0.40600
C1232       C  0.79829873  0.67716940  0.16606219    -0.26500
O1233       O  0.70724301  0.63940950  0.18484752    -0.58400
H1234       H  0.69709935  0.69149930  0.14108880     0.16200
O1235       O  0.81762280  0.72542177  0.12848084    -0.59800
H1236       H  0.82663357  0.67351168  0.17394530     0.14700
H1237       H  0.75635840  0.61628950  0.31844695     0.46500
H1238       H  0.69186033  0.65500872  0.20046586     0.41900
H1239       H  0.82923452  0.73641929  0.15021422     0.45300
H1240       H  0.81292936  0.58782286  0.15835302     0.36800
C1241       C  0.62082317  0.61567714  0.65521804    -0.27400
C1242       C  0.62925682  0.62940144  0.62085805     0.02200
C1243       C  0.61232733  0.61416315  0.59020015     0.30300
C1244       C  0.58645535  0.58645732  0.59427079    -0.19200
C1245       C  0.57689036  0.57340363  0.62874454    -0.28600
C1246       C  0.59494330  0.58790188  0.65934293     0.44300
C1247       C  0.65580274  0.65953088  0.61695325     0.05500
O1248       O  0.62199085  0.62531790  0.55608939    -0.57100
H1249       H  0.57359365  0.57546040  0.57022170     0.18400
O1250       O  0.58726992  0.57557144  0.69346643    -0.63900
H1251       H  0.63398596  0.62691945  0.67900144     0.16900
C1252       C  0.64549284  0.69226372  0.60125322     0.29100
C1253       C  0.67200550  0.71872913  0.59443081    -0.24700
C1254       C  0.71045352  0.71200262  0.59855770    -0.24000
C1255       C  0.71762435  0.68357495  0.62401992     0.40600
C1256       C  0.69130271  0.65650633  0.63050896    -0.26500
O1257       O  0.60943524  0.69889313  0.59306598    -0.58400
H1258       H  0.66179187  0.74388639  0.58368460     0.16200
O1259       O  0.74880741  0.68218764  0.64445638    -0.59800
H1260       H  0.69867800  0.63328196  0.64676725     0.14700
H1261       H  0.60377521  0.55463490  0.69710744     0.46500
H1262       H  0.60843482  0.70145011  0.56632534     0.41900
H1263       H  0.74077582  0.68541938  0.66992327     0.45300
H1264       H  0.60008803  0.63765636  0.54620705     0.36800
C1265       C  0.37331730  0.61828017  0.66391035    -0.27400
C1266       C  0.37171369  0.64021692  0.63298460     0.02200
C1267       C  0.39734430  0.63483403  0.60514993     0.30300
C1268       C  0.42300679  0.60690634  0.60763042    -0.19200
C1269       C  0.42410954  0.58399603  0.63794486    -0.28600
C1270       C  0.39972095  0.59075982  0.66684847     0.44300
C1271       C  0.34056145  0.66523344  0.62695865     0.05500
O1272       O  0.39670717  0.65607869  0.57475449    -0.57100
H1273       H  0.44180968  0.60281573  0.58535903     0.18400
O1274       O  0.39998121  0.56940395  0.69712660    -0.63900
H1275       H  0.35349157  0.62192367  0.68537670     0.16900
C1276       C  0.30783147  0.65177088  0.61292835     0.29100
C1277       C  0.28125588  0.67520666  0.59922522    -0.24700
C1278       C  0.28534276  0.71366052  0.59854564    -0.24000
C1279       C  0.31967204  0.72638062  0.61328238     0.40600
C1280       C  0.34576107  0.70252154  0.62795280    -0.26500
O1281       O  0.30260020  0.61513686  0.60974502    -0.58400
H1282       H  0.25939182  0.66095818  0.58688417     0.16200
O1283       O  0.33069737  0.76157564  0.60935105    -0.59800
H1284       H  0.37179012  0.71322290  0.63725972     0.14700
H1285       H  0.41613047  0.58218515  0.71456011     0.46500
H1286       H  0.31247095  0.60870575  0.58560448     0.41900
H1287       H  0.35035176  0.76142670  0.59085079     0.45300
H1288       H  0.37909878  0.64412381  0.55811730     0.36800
C1289       C  0.35546503  0.40425109  0.61482066    -0.27400
C1290       C  0.35978005  0.37222973  0.63471673     0.02200
C1291       C  0.38902402  0.36969009  0.65954881     0.30300
C1292       C  0.41454480  0.39794030  0.66263143    -0.19200
C1293       C  0.41164259  0.42878779  0.64080293    -0.28600
C1294       C  0.38112514  0.43235059  0.61768230     0.44300
C1295       C  0.33657067  0.34030262  0.62583946     0.05500
O1296       O  0.39380982  0.33901076  0.67975891    -0.57100
H1297       H  0.43774714  0.39484916  0.68065709     0.18400
O1298       O  0.37678782  0.46269670  0.59684088    -0.63900
H1299       H  0.33319172  0.40671290  0.59558800     0.16900
C1300       C  0.29844522  0.34165968  0.62642370     0.29100
C1301       C  0.27766013  0.31292791  0.61243028    -0.24700
C1302       C  0.29299953  0.28171275  0.59594244    -0.24000
C1303       C  0.33267997  0.27954186  0.60025473     0.40600
C1304       C  0.35307107  0.30849608  0.61456391    -0.26500
O1305       O  0.28092674  0.37103475  0.64090035    -0.58400
H1306       H  0.24929766  0.31554730  0.61687018     0.16200
O1307       O  0.35293329  0.24999706  0.58989136    -0.59800
H1308       H  0.38269352  0.30655331  0.61509000     0.14700
H1309       H  0.36559383  0.48087354  0.61315727     0.46500
H1310       H  0.27757951  0.36513267  0.66688626     0.41900
H1311       H  0.37268569  0.25873382  0.57358629     0.45300
H1312       H  0.37793194  0.34222347  0.70119113     0.36800
C1313       C  0.61943086  0.38256653  0.65835859    -0.27400
C1314       C  0.62354164  0.36323443  0.62592704     0.02200
C1315       C  0.59912050  0.37033753  0.59725188     0.30300
C1316       C  0.57223392  0.39721784  0.60062228    -0.19200
C1317       C  0.56866190  0.41758961  0.63258833    -0.28600
C1318       C  0.59216516  0.40929840  0.66195428     0.44300
C1319       C  0.65531774  0.33840776  0.62017614     0.05500
O1320       O  0.60131247  0.35090464  0.56569973    -0.57100
H1321       H  0.55430591  0.40232904  0.57783760     0.18400
O1322       O  0.58992630  0.42820861  0.69377553    -0.63900
H1323       H  0.63808566  0.37766462  0.68061499     0.16900
C1324       C  0.68300226  0.34832431  0.59624829     0.29100
C1325       C  0.70838519  0.32290511  0.58401297    -0.24700
C1326       C  0.70953791  0.28602381  0.59604835    -0.24000
C1327       C  0.68243940  0.27773703  0.62339562     0.40600
C1328       C  0.65607573  0.30353202  0.63458369    -0.26500
O1329       O  0.68378877  0.38256986  0.58202767    -0.58400
H1330       H  0.72461277  0.33329012  0.56226540     0.16200
O1331       O  0.67690646  0.24316912  0.63499520    -0.59800
H1332       H  0.63444894  0.29524419  0.65286117     0.14700
H1333       H  0.57444334  0.41307291  0.70983741     0.46500
H1334       H  0.69787223  0.39723644  0.59977677     0.41900
H1335       H  0.68027571  0.24377725  0.66158738     0.45300
H1336       H  0.61532633  0.36639368  0.54877847     0.36800
loop_ 
_geom_bond_atom_site_label_1 
_geom_bond_atom_site_label_2 
_geom_bond_distance 
_geom_bond_site_symmetry_2 
_ccdc_geom_bond_type 
O1            V9   1.904       .  S
O1           C11   1.266       .  A
O2            V9   1.912       .  S
O2           C12   1.269       .  A
O3            V9   1.896       .  S
O3           C13   1.263       .  A
O4            V9   1.894       .  S
O4           C14   1.264       .  A
O5           V10   1.908       .  S
O5           C14   1.267       .  A
O6           V10   1.910       .  S
O6           C13   1.266       .  A
O7           V10   1.915       .  S
O7           C12   1.268       .  A
O8           V10   1.916       .  S
O8           C11   1.267       .  A
V9           V10   2.082       .  T
C11        C1269   1.492       .  S
C12        C1317   1.502       .  S
C13        C1293   1.479       .  S
C14        C1245   1.487       .  S
O15          V23   1.907       .  S
O15          C25   1.266       .  A
O16          V23   1.903       .  S
O16          C26   1.266       .  A
O17          V23   1.899       .  S
O17          C27   1.265       .  A
O18          V23   1.892       .  S
O18          C28   1.263       .  A
O19          V24   1.912       .  S
O19          C28   1.267       .  A
O20          V24   1.914       .  S
O20          C27   1.266       .  A
O21          V24   1.924       .  S
O21          C26   1.270       .  A
O22          V24   1.915       .  S
O22          C25   1.268       .  A
V23          V24   2.085       .  T
C25        C1197   1.495       .  S
C26        C1149   1.500       .  S
C27        C1221   1.485       .  S
C28        C1182   1.481       .  S
O29          V37   1.890       .  S
O29          C39   1.263       .  A
O30          V37   1.893       .  S
O30          C40   1.264       .  A
O31          V37   1.893       .  S
O31          C41   1.264       .  A
O32          V37   1.900       .  S
O32          C42   1.266       .  A
O33          V38   1.914       .  S
O33          C42   1.268       .  A
O34          V38   1.910       .  S
O34          C41   1.266       .  A
O35          V38   1.914       .  S
O35          C40   1.267       .  A
O36          V38   1.911       .  S
O36          C39   1.267       .  A
V37          V38   2.080       .  T
C39        C1077   1.477       .  S
C40        C1110   1.481       .  S
C41        C1053   1.476       .  S
C42        C1134   1.496       .  S
O43          V51   1.908       .  S
O43          C53   1.267       .  A
O44          V51   1.910       .  S
O44          C54   1.267       .  A
O45          V51   1.912       .  S
O45          C55   1.268       .  A
O46          V51   1.913       .  S
O46          C56   1.268       .  A
O47          V52   1.904       .  S
O47          C56   1.266       .  A
O48          V52   1.902       .  S
O48          C55   1.265       .  A
O49          V52   1.902       .  S
O49          C54   1.266       .  A
O50          V52   1.902       .  S
O50          C53   1.266       .  A
V51          V52   2.083       .  T
C53         C990   1.492       .  S
C54        C1014   1.492       .  S
C55        C1029   1.493       .  S
C56         C957   1.497       .  S
O57          V65   1.890       .  S
O57          C67   1.263       .  A
O58          V65   1.897       .  S
O58          C68   1.264       .  A
O59          V65   1.882       .  S
O59          C69   1.263       .  A
O60          V65   1.885       .  S
O60          C70   1.262       .  A
O61          V66   1.915       .  S
O61          C70   1.267       .  A
O62          V66   1.912       .  S
O62          C69   1.267       .  A
O63          V66   1.912       .  S
O63          C68   1.266       .  A
O64          V66   1.915       .  S
O64          C67   1.267       .  A
V65          V66   2.082       .  T
C67         C918   1.479       .  S
C68         C870   1.477       .  S
C69         C894   1.480       .  S
C70         C942   1.477       .  S
O71          V79   1.899       .  S
O71          C81   1.265       .  A
O72          V79   1.897       .  S
O72          C82   1.263       .  A
O73          V79   1.903       .  S
O73          C83   1.266       .  A
O74          V79   1.896       .  S
O74          C84   1.264       .  A
O75          V80   1.920       .  S
O75          C84   1.268   1_556  A
O76          V80   1.914   1_554  S
O76          C83   1.268       .  A
O77          V80   1.911   1_554  S
O77          C82   1.266       .  A
O78          V80   1.909       .  S
O78          C81   1.266   1_556  A
V79          V80   2.085   1_554  T
C81         C765   1.486       .  S
C82         C813   1.477       .  S
C83         C846   1.498       .  S
C84         C789   1.488       .  S
C85          C86   1.705       .  S
C85        C1062   1.597       .  S
C85        C1158   1.627       .  S
C85        C1254   1.624       .  S
C86         C693   1.593       .  S
C86         C717   1.616       .  S
C86         C741   1.597       .  S
C87          C88   1.732       .  S
C87         C885   1.621       .  S
C87        C1173   1.614       .  S
C87        C1326   1.628       .  S
C88         C630   1.602       .  S
C88         C645   1.603       .  S
C88         C678   1.616       .  S
C89          C90   1.705       .  S
C89         C966   1.621       .  S
C89        C1086   1.589       .  S
C89        C1278   1.615       .  S
C90         C558   1.597       .  S
C90         C582   1.625       .  S
C90         C597   1.602       .  S
C91          C92   1.726       .  S
C91         C798   1.613       .  S
C91        C1101   1.610       .  S
C91        C1230   1.599       .  S
C92         C486   1.592       .  S
C92         C501   1.622       .  S
C92         C525   1.615       .  S
C93          C94   1.706       .  S
C93         C861   1.594       .  S
C93         C981   1.616       .  S
C93        C1302   1.627       .  S
C94         C414   1.625       .  S
C94         C438   1.597       .  S
C94         C453   1.599       .  S
C95          C96   1.701       .  S
C95         C822   1.599       .  S
C95        C1005   1.607       .  S
C95        C1125   1.610       .  S
C96         C342   1.606       .  S
C96         C357   1.620       .  S
C96         C381   1.600       .  S
C97          C98   1.699       .  S
C97         C774   1.617       .  S
C97         C909   1.587       .  S
C97        C1206   1.609       .  S
C98         C270   1.583       .  S
C98         C285   1.603       .  S
C98         C309   1.632       .  S
C99         C100   1.696       .  S
C99         C837   1.631       .  S
C99         C933   1.595       .  S
C99        C1038   1.605       .  S
C100        C198   1.602       .  S
C100        C222   1.594       .  S
C100        C237   1.635       .  S
O101        V109   1.900       .  S
O101        C111   1.265       .  A
O102        V109   1.899   1_565  S
O102        C112   1.265       .  A
O103        V109   1.901   1_565  S
O103        C113   1.266       .  A
O104        V109   1.902       .  S
O104        C114   1.265       .  A
O105        V110   1.919   1_545  S
O105        C114   1.268       .  A
O106        V110   1.914       .  S
O106        C113   1.268       .  A
O107        V110   1.915       .  S
O107        C112   1.269       .  A
O108        V110   1.911   1_545  S
O108        C111   1.266       .  A
V109        V110   2.080   1_545  T
C111        C213   1.479       .  S
C112        C573   1.494       .  S
C113        C366   1.493       .  S
C114        C429   1.485       .  S
O115        V123   1.909       .  S
O115        C125   1.266       .  A
O116        V123   1.913   1_655  S
O116        C126   1.267       .  A
O117        V123   1.910       .  S
O117        C127   1.267       .  A
O118        V123   1.906   1_655  S
O118        C128   1.265       .  A
O119        V124   1.897   1_655  S
O119        C128   1.264       .  A
O120        V124   1.898       .  S
O120        C127   1.264       .  A
O121        V124   1.893   1_655  S
O121        C126   1.264       .  A
O122        V124   1.902       .  S
O122        C125   1.265       .  A
V123        V124   2.084       .  T
C125        C462   1.484       .  S
C126        C294   1.486       .  S
C127        C189   1.485       .  S
C128        C654   1.480       .  S
O129        V137   1.904   1_455  S
O129        C139   1.266       .  A
O130        V137   1.902   1_565  S
O130        C140   1.265       .  A
O131        V137   1.917   1_465  S
O131        C141   1.268       .  A
O132        V137   1.913       .  S
O132        C142   1.267       .  A
O133        V138   1.896       .  S
O133        C142   1.264       .  A
O134        V138   1.901   1_465  S
O134        C141   1.265       .  A
O135        V138   1.901   1_565  S
O135        C140   1.266       .  A
O136        V138   1.903   1_455  S
O136        C139   1.266       .  A
V137        V138   2.081       .  T
C139        C246   1.490       .  S
C140        C534   1.485       .  S
C141        C390   1.486       .  S
C142        C318   1.483       .  S
O143        V151   1.911   1_545  S
O143        C153   1.266       .  A
O144        V151   1.917       .  S
O144        C154   1.268       .  A
O145        V151   1.916       .  S
O145        C155   1.268       .  A
O146        V151   1.917   1_545  S
O146        C156   1.268       .  A
O147        V152   1.893   1_545  S
O147        C156   1.264       .  A
O148        V152   1.889       .  S
O148        C155   1.262       .  A
O149        V152   1.885       .  S
O149        C154   1.263       .  A
O150        V152   1.891   1_545  S
O150        C153   1.263       .  A
V151        V152   2.085       .  T
C153        C261   1.478       .  S
C154        C726   1.488       .  S
C155        C510   1.485       .  S
C156        C621   1.486       .  S
O157        V165   1.925   1_545  S
O157        C167   1.270       .  A
O158        V165   1.919   1_455  S
O158        C168   1.269       .  A
O159        V165   1.913       .  S
O159        C169   1.266       .  A
O160        V165   1.912   1_445  S
O160        C170   1.267       .  A
O161        V166   1.895   1_455  S
O161        C170   1.265       .  A
O162        V166   1.894   1_565  S
O162        C169   1.264       .  A
O163        V166   1.890   1_465  S
O163        C168   1.262       .  A
O164        V166   1.887       .  S
O164        C167   1.262       .  A
V165        V166   2.084   1_565  T
C167        C669   1.488       .  S
C168        C606   1.485       .  S
C169        C750   1.481       .  S
C170        C405   1.489       .  S
O171        V179   1.894       .  S
O171        C181   1.263       .  A
O172        V179   1.895   1_455  S
O172        C182   1.265       .  A
O173        V179   1.894       .  S
O173        C183   1.264       .  A
O174        V179   1.896   1_455  S
O174        C184   1.264       .  A
O175        V180   1.920   1_455  S
O175        C184   1.269       .  A
O176        V180   1.917       .  S
O176        C183   1.269       .  A
O177        V180   1.917   1_455  S
O177        C182   1.267       .  A
O178        V180   1.910       .  S
O178        C181   1.266       .  A
V179        V180   2.080       .  T
C181        C477   1.476       .  S
C182        C549   1.482       .  S
C183        C702   1.487       .  S
C184        C333   1.489       .  S
C185        C186   1.400       .  A
C185        C190   1.400       .  A
C185        H195   1.084       .  S
C186        C191   1.478       .  S
C186        C187   1.406       .  A
C187        C188   1.404       .  A
C187        O192   1.371       .  S
C188        C189   1.407       .  A
C188        H193   1.083       .  S
C189        C190   1.413       .  A
C190        O194   1.372       .  S
C191        C196   1.399   1_556  A
C191        C200   1.390       .  A
O192        H208   0.992       .  S
O194        H205   0.992       .  S
C196        C197   1.405       .  A
C196        O201   1.371       .  S
C197        C198   1.413       .  A
C197        H202   1.069       .  S
C198        C199   1.447       .  A
C199        C200   1.399   1_554  A
C199        O203   1.374   1_554  S
C200        H204   1.084       .  S
O201        H206   0.992       .  S
O203        H207   0.989       .  S
C209        C210   1.405       .  A
C209        C214   1.399       .  A
C209        H219   1.084       .  S
C210        C215   1.487       .  S
C210        C211   1.409       .  A
C211        C212   1.408       .  A
C211        O216   1.371   1_556  S
C212        C213   1.406       .  A
C212        H217   1.084       .  S
C213        C214   1.406       .  A
C214        O218   1.372       .  S
C215        C220   1.405   1_556  A
C215        C224   1.392   1_556  A
O216        H232   0.993       .  S
O218        H229   0.992       .  S
C220        C221   1.410       .  A
C220        O225   1.371       .  S
C221        C222   1.415       .  A
C221        H226   1.061       .  S
C222        C223   1.442       .  A
C223        C224   1.394       .  A
C223        O227   1.377       .  S
C224        H228   1.084   1_554  S
O225        H230   0.991   1_554  S
O227        H231   0.991       .  S
C233        C234   1.391       .  A
C233        C238   1.415       .  A
C233        H243   1.084       .  S
C234        C239   1.486       .  S
C234        C235   1.389       .  A
C235        C236   1.395       .  A
C235        O240   1.373       .  S
C236        C237   1.441       .  A
C236        H241   1.071       .  S
C237        C238   1.448       .  A
C238        O242   1.367       .  S
C239        C244   1.406       .  A
C239        C248   1.403       .  A
O240        H256   0.992       .  S
O242        H253   0.993       .  S
C244        C245   1.406       .  A
C244        O249   1.371       .  S
C245        C246   1.410       .  A
C245        H250   1.083       .  S
C246        C247   1.412       .  A
C247        C248   1.400       .  A
C247        O251   1.371       .  S
C248        H252   1.084       .  S
O249        H254   0.991       .  S
O251        H255   0.993       .  S
C257        C258   1.407       .  A
C257        C262   1.395       .  A
C257        H267   1.084       .  S
C258        C263   1.490       .  S
C258        C259   1.410       .  A
C259        C260   1.408       .  A
C259        O264   1.371       .  S
C260        C261   1.406       .  A
C260        H265   1.084       .  S
C261        C262   1.407       .  A
C262        O266   1.372       .  S
C263        C268   1.408   1_556  A
C263        C272   1.393       .  A
O264        H280   0.993       .  S
O266        H277   0.993       .  S
C268        C269   1.412       .  A
C268        O273   1.372       .  S
C269        C270   1.413       .  A
C269        H274   1.064       .  S
C270        C271   1.442       .  A
C271        C272   1.389   1_554  A
C271        O275   1.377       .  S
C272        H276   1.084       .  S
O273        H278   0.992   1_554  S
O275        H279   0.992       .  S
C281        C282   1.394       .  A
C281        C286   1.400       .  A
C281        H291   1.084       .  S
C282        C287   1.487       .  S
C282        C283   1.403   1_556  A
C283        C284   1.404       .  A
C283        O288   1.371       .  S
C284        C285   1.418       .  A
C284        H289   1.068       .  S
C285        C286   1.446   1_554  A
C286        O290   1.377       .  S
C287        C292   1.409       .  A
C287        C296   1.406       .  A
O288        H304   0.992       .  S
O290        H301   0.992       .  S
C292        C293   1.396       .  A
C292        O297   1.373       .  S
C293        C294   1.404       .  A
C293        H298   1.084       .  S
C294        C295   1.412       .  A
C295        C296   1.407       .  A
C295        O299   1.371       .  S
C296        H300   1.083       .  S
O297        H302   0.992       .  S
O299        H303   0.992       .  S
C305        C306   1.383       .  A
C305        C310   1.401       .  A
C305        H315   1.085       .  S
C306        C311   1.483       .  S
C306        C307   1.394       .  A
C307        C308   1.406       .  A
C307        O312   1.371       .  S
C308        C309   1.424       .  A
C308        H313   1.062       .  S
C309        C310   1.465       .  A
C310        O314   1.377       .  S
C311        C316   1.410       .  A
C311        C320   1.401       .  A
O312        H328   0.992       .  S
O314        H325   0.992       .  S
C316        C317   1.406       .  A
C316        O321   1.372       .  S
C317        C318   1.406       .  A
C317        H322   1.083       .  S
C318        C319   1.411       .  A
C319        C320   1.401       .  A
C319        O323   1.372       .  S
C320        H324   1.084       .  S
O321        H326   0.992       .  S
O323        H327   0.992       .  S
C329        C330   1.402       .  A
C329        C334   1.401       .  A
C329        H339   1.084       .  S
C330        C335   1.489   1_556  S
C330        C331   1.408       .  A
C331        C332   1.409       .  A
C331        O336   1.371       .  S
C332        C333   1.406       .  A
C332        H337   1.083       .  S
C333        C334   1.413       .  A
C334        O338   1.372       .  S
C335        C340   1.395   1_554  A
C335        C344   1.393       .  A
O336        H352   0.991       .  S
O338        H349   0.992       .  S
C340        C341   1.401   1_556  A
C340        O345   1.372       .  S
C341        C342   1.427       .  A
C341        H346   1.062       .  S
C342        C343   1.444       .  A
C343        C344   1.409       .  A
C343        O347   1.372       .  S
C344        H348   1.084       .  S
O345        H350   0.991       .  S
O347        H351   0.994       .  S
C353        C354   1.397       .  A
C353        C358   1.410       .  A
C353        H363   1.082   1_554  S
C354        C359   1.497   1_554  S
C354        C355   1.402       .  A
C355        C356   1.401       .  A
C355        O360   1.372       .  S
C356        C357   1.430       .  A
C356        H361   1.081       .  S
C357        C358   1.434       .  A
C358        O362   1.367       .  S
C359        C364   1.412       .  A
C359        C368   1.405       .  A
O360        H376   0.991       .  S
O362        H373   0.994   1_554  S
C364        C365   1.409       .  A
C364        O369   1.372       .  S
C365        C366   1.408       .  A
C365        H370   1.083       .  S
C366        C367   1.412       .  A
C367        C368   1.401       .  A
C367        O371   1.372       .  S
C368        H372   1.084       .  S
O369        H374   0.992       .  S
O371        H375   0.991       .  S
C377        C378   1.390       .  A
C377        C382   1.396       .  A
C377        H387   1.084       .  S
C378        C383   1.490       .  S
C378        C379   1.404       .  A
C379        C380   1.413       .  A
C379        O384   1.372       .  S
C380        C381   1.420       .  A
C380        H385   1.066       .  S
C381        C382   1.440       .  A
C382        O386   1.374       .  S
C383        C388   1.409       .  A
C383        C392   1.405       .  A
O384        H400   0.990       .  S
O386        H397   0.992       .  S
C388        C389   1.408       .  A
C388        O393   1.371       .  S
C389        C390   1.406       .  A
C389        H394   1.083       .  S
C390        C391   1.410       .  A
C391        C392   1.402       .  A
C391        O395   1.372       .  S
C392        H396   1.084       .  S
O393        H398   0.992       .  S
O395        H399   0.992       .  S
C401        C402   1.403       .  A
C401        C406   1.409       .  A
C401        H411   1.083       .  S
C402        C407   1.482       .  S
C402        C403   1.406       .  A
C403        C404   1.396       .  A
C403        O408   1.373       .  S
C404        C405   1.406       .  A
C404        H409   1.083       .  S
C405        C406   1.415       .  A
C406        O410   1.371       .  S
C407        C412   1.391       .  A
C407        C416   1.391       .  A
O408        H424   0.991       .  S
O410        H421   0.991       .  S
C412        C413   1.395       .  A
C412        O417   1.372       .  S
C413        C414   1.434       .  A
C413        H418   1.078       .  S
C414        C415   1.447       .  A
C415        C416   1.414       .  A
C415        O419   1.372       .  S
C416        H420   1.084       .  S
O417        H422   0.991       .  S
O419        H423   0.999       .  S
C425        C426   1.406       .  A
C425        C430   1.402       .  A
C425        H435   1.084       .  S
C426        C431   1.495       .  S
C426        C427   1.411       .  A
C427        C428   1.411       .  A
C427        O432   1.371       .  S
C428        C429   1.406       .  A
C428        H433   1.084       .  S
C429        C430   1.407       .  A
C430        O434   1.372       .  S
C431        C436   1.405       .  A
C431        C440   1.394       .  A
O432        H448   0.991       .  S
O434        H445   0.994       .  S
C436        C437   1.412       .  A
C436        O441   1.372       .  S
C437        C438   1.408       .  A
C437        H442   1.049       .  S
C438        C439   1.438       .  A
C439        C440   1.399       .  A
C439        O443   1.373       .  S
C440        H444   1.084       .  S
O441        H446   0.994       .  S
O443        H447   0.991       .  S
C449        C450   1.396       .  A
C449        C454   1.412       .  A
C449        H459   1.084       .  S
C450        C455   1.488       .  S
C450        C451   1.395       .  A
C451        C452   1.398       .  A
C451        O456   1.373       .  S
C452        C453   1.426       .  A
C452        H457   1.065       .  S
C453        C454   1.440       .  A
C454        O458   1.378       .  S
C455        C460   1.408       .  A
C455        C464   1.405       .  A
O456        H472   0.993       .  S
O458        H469   0.993       .  S
C460        C461   1.401       .  A
C460        O465   1.372       .  S
C461        C462   1.404       .  A
C461        H466   1.084       .  S
C462        C463   1.411       .  A
C463        C464   1.407       .  A
C463        O467   1.372       .  S
C464        H468   1.083       .  S
O465        H470   0.992       .  S
O467        H471   0.991       .  S
C473        C474   1.406       .  A
C473        C478   1.405       .  A
C473        H483   1.083   1_556  S
C474        C479   1.490   1_556  S
C474        C475   1.413       .  A
C475        C476   1.397       .  A
C475        O480   1.372       .  S
C476        C477   1.401       .  A
C476        H481   1.084       .  S
C477        C478   1.409       .  A
C478        O482   1.371       .  S
C479        C484   1.405       .  A
C479        C488   1.394       .  A
O480        H496   0.993       .  S
O482        H493   0.992       .  S
C484        C485   1.407       .  A
C484        O489   1.371       .  S
C485        C486   1.407       .  A
C485        H490   1.052       .  S
C486        C487   1.440       .  A
C487        C488   1.394       .  A
C487        O491   1.374       .  S
C488        H492   1.084   1_554  S
O489        H494   0.991       .  S
O491        H495   0.991       .  S
C497        C498   1.394       .  A
C497        C502   1.413   1_556  A
C497        H507   1.084       .  S
C498        C503   1.480       .  S
C498        C499   1.389   1_556  A
C499        C500   1.391       .  A
C499        O504   1.374       .  S
C500        C501   1.429       .  A
C500        H505   1.064       .  S
C501        C502   1.450       .  A
C502        O506   1.378       .  S
C503        C508   1.405       .  A
C503        C512   1.405       .  A
O504        H520   0.993       .  S
O506        H517   0.994   1_554  S
C508        C509   1.397       .  A
C508        O513   1.372       .  S
C509        C510   1.407       .  A
C509        H514   1.084       .  S
C510        C511   1.411       .  A
C511        C512   1.406       .  A
C511        O515   1.371       .  S
C512        H516   1.083       .  S
O513        H518   0.993       .  S
O515        H519   0.991       .  S
C521        C522   1.394       .  A
C521        C526   1.409       .  A
C521        H531   1.084       .  S
C522        C527   1.476       .  S
C522        C523   1.388       .  A
C523        C524   1.388       .  A
C523        O528   1.374       .  S
C524        C525   1.431       .  A
C524        H529   1.076       .  S
C525        C526   1.458       .  A
C526        O530   1.382       .  S
C527        C532   1.406       .  A
C527        C536   1.401       .  A
O528        H544   0.993       .  S
O530        H541   0.990       .  S
C532        C533   1.399       .  A
C532        O537   1.372       .  S
C533        C534   1.406       .  A
C533        H538   1.083       .  S
C534        C535   1.414       .  A
C535        C536   1.403       .  A
C535        O539   1.371       .  S
C536        H540   1.084       .  S
O537        H542   0.992       .  S
O539        H543   0.993       .  S
C545        C546   1.408       .  A
C545        C550   1.411       .  A
C545        H555   1.083       .  S
C546        C551   1.493       .  S
C546        C547   1.410       .  A
C547        C548   1.396       .  A
C547        O552   1.372       .  S
C548        C549   1.401       .  A
C548        H553   1.084       .  S
C549        C550   1.412       .  A
C550        O554   1.372       .  S
C551        C556   1.402       .  A
C551        C560   1.395       .  A
O552        H568   0.992       .  S
O554        H565   0.993       .  S
C556        C557   1.409       .  A
C556        O561   1.371       .  S
C557        C558   1.414       .  A
C557        H562   1.061       .  S
C558        C559   1.436       .  A
C559        C560   1.398       .  A
C559        O563   1.372       .  S
C560        H564   1.084       .  S
O561        H566   0.992       .  S
O563        H567   0.991       .  S
C569        C570   1.402       .  A
C569        C574   1.401       .  A
C569        H579   1.084       .  S
C570        C575   1.490       .  S
C570        C571   1.410       .  A
C571        C572   1.407       .  A
C571        O576   1.371       .  S
C572        C573   1.409       .  A
C572        H577   1.083       .  S
C573        C574   1.415       .  A
C574        O578   1.372       .  S
C575        C580   1.398       .  A
C575        C584   1.390       .  A
O576        H592   0.992       .  S
O578        H589   0.992       .  S
C580        C581   1.403       .  A
C580        O585   1.371       .  S
C581        C582   1.434       .  A
C581        H586   1.079       .  S
C582        C583   1.444       .  A
C583        C584   1.409       .  A
C583        O587   1.366       .  S
C584        H588   1.084       .  S
O585        H590   0.992       .  S
O587        H591   0.993       .  S
C593        C594   1.391       .  A
C593        C598   1.404       .  A
C593        H603   1.084       .  S
C594        C599   1.481       .  S
C594        C595   1.395       .  A
C595        C596   1.401       .  A
C595        O600   1.372       .  S
C596        C597   1.426       .  A
C596        H601   1.061       .  S
C597        C598   1.440       .  A
C598        O602   1.369       .  S
C599        C604   1.407       .  A
C599        C608   1.400       .  A
O600        H616   0.992       .  S
O602        H613   0.994       .  S
C604        C605   1.407       .  A
C604        O609   1.371       .  S
C605        C606   1.407       .  A
C605        H610   1.083       .  S
C606        C607   1.413       .  A
C607        C608   1.398       .  A
C607        O611   1.372       .  S
C608        H612   1.084       .  S
O609        H614   0.990       .  S
O611        H615   0.992       .  S
C617        C618   1.406       .  A
C617        C622   1.411       .  A
C617        H627   1.083       .  S
C618        C623   1.486       .  S
C618        C619   1.407       .  A
C619        C620   1.396       .  A
C619        O624   1.372       .  S
C620        C621   1.404       .  A
C620        H625   1.084       .  S
C621        C622   1.413       .  A
C622        O626   1.371       .  S
C623        C628   1.400       .  A
C623        C632   1.388       .  A
O624        H640   0.991       .  S
O626        H637   0.992       .  S
C628        C629   1.411       .  A
C628        O633   1.372       .  S
C629        C630   1.430       .  A
C629        H634   1.067       .  S
C630        C631   1.448       .  A
C631        C632   1.397       .  A
C631        O635   1.370       .  S
C632        H636   1.085       .  S
O633        H638   0.993       .  S
O635        H639   0.993       .  S
C641        C642   1.393       .  A
C641        C646   1.411       .  A
C641        H651   1.084       .  S
C642        C647   1.477       .  S
C642        C643   1.388       .  A
C643        C644   1.391       .  A
C643        O648   1.373       .  S
C644        C645   1.437       .  A
C644        H649   1.069       .  S
C645        C646   1.441       .  A
C646        O650   1.363       .  S
C647        C652   1.406       .  A
C647        C656   1.401       .  A
O648        H664   0.992       .  S
O650        H661   0.993       .  S
C652        C653   1.405       .  A
C652        O657   1.371       .  S
C653        C654   1.407       .  A
C653        H658   1.083       .  S
C654        C655   1.410       .  A
C655        C656   1.398       .  A
C655        O659   1.372       .  S
C656        H660   1.084       .  S
O657        H662   0.991       .  S
O659        H663   0.993       .  S
C665        C666   1.406       .  A
C665        C670   1.412       .  A
C665        H675   1.083       .  S
C666        C671   1.486       .  S
C666        C667   1.406       .  A
C667        C668   1.396       .  A
C667        O672   1.372       .  S
C668        C669   1.406       .  A
C668        H673   1.084       .  S
C669        C670   1.412       .  A
C670        O674   1.371       .  S
C671        C676   1.395       .  A
C671        C680   1.388       .  A
O672        H688   0.993       .  S
O674        H685   0.991       .  S
C676        C677   1.408       .  A
C676        O681   1.372       .  S
C677        C678   1.437       .  A
C677        H682   1.063       .  S
C678        C679   1.449       .  A
C679        C680   1.402       .  A
C679        O683   1.369       .  S
C680        H684   1.085       .  S
O681        H686   0.992       .  S
O683        H687   0.992       .  S
C689        C690   1.396       .  A
C689        C694   1.411       .  A
C689        H699   1.084       .  S
C690        C695   1.483       .  S
C690        C691   1.393       .  A
C691        C692   1.397       .  A
C691        O696   1.373       .  S
C692        C693   1.433       .  A
C692        H697   1.067       .  S
C693        C694   1.438       .  A
C694        O698   1.375       .  S
C695        C700   1.409       .  A
C695        C704   1.400       .  A
O696        H712   0.993       .  S
O698        H709   0.993       .  S
C700        C701   1.407       .  A
C700        O705   1.372       .  S
C701        C702   1.408       .  A
C701        H706   1.083       .  S
C702        C703   1.412       .  A
C703        C704   1.399       .  A
C703        O707   1.372       .  S
C704        H708   1.084       .  S
O705        H710   0.993       .  S
O707        H711   0.993       .  S
C713        C714   1.388       .  A
C713        C718   1.395       .  A
C713        H723   1.085       .  S
C714        C719   1.484       .  S
C714        C715   1.398       .  A
C715        C716   1.410       .  A
C715        O720   1.372       .  S
C716        C717   1.429       .  A
C716        H721   1.071       .  S
C717        C718   1.449       .  A
C718        O722   1.371       .  S
C719        C724   1.407       .  A
C719        C728   1.406       .  A
O720        H736   0.993       .  S
O722        H733   0.993       .  S
C724        C725   1.390       .  A
C724        O729   1.373       .  S
C725        C726   1.405       .  A
C725        H730   1.083       .  S
C726        C727   1.415       .  A
C727        C728   1.411       .  A
C727        O731   1.371       .  S
C728        H732   1.083       .  S
O729        H734   0.994       .  S
O731        H735   0.992       .  S
C737        C738   1.391       .  A
C737        C742   1.395       .  A
C737        H747   1.084       .  S
C738        C743   1.485       .  S
C738        C739   1.398       .  A
C739        C740   1.407       .  A
C739        O744   1.372       .  S
C740        C741   1.416       .  A
C740        H745   1.054       .  S
C741        C742   1.445       .  A
C742        O746   1.371       .  S
C743        C748   1.409       .  A
C743        C752   1.405       .  A
O744        H760   0.991       .  S
O746        H757   0.992       .  S
C748        C749   1.396       .  A
C748        O753   1.373       .  S
C749        C750   1.402       .  A
C749        H754   1.084       .  S
C750        C751   1.412       .  A
C751        C752   1.408       .  A
C751        O755   1.371       .  S
C752        H756   1.083       .  S
O753        H758   0.991       .  S
O755        H759   0.992       .  S
C761        C762   1.402   1_556  A
C761        C766   1.406       .  A
C761        H771   1.083       .  S
C762        C767   1.481       .  S
C762        C763   1.408       .  A
C763        C764   1.398       .  A
C763        O768   1.373       .  S
C764        C765   1.405       .  A
C764        H769   1.084       .  S
C765        C766   1.414   1_554  A
C766        O770   1.371       .  S
C767        C772   1.393       .  A
C767        C776   1.390       .  A
O768        H784   0.993       .  S
O770        H781   0.991       .  S
C772        C773   1.398       .  A
C772        O777   1.372       .  S
C773        C774   1.431       .  A
C773        H778   1.077       .  S
C774        C775   1.447       .  A
C775        C776   1.409       .  A
C775        O779   1.377       .  S
C776        H780   1.084       .  S
O777        H782   0.992       .  S
O779        H783   0.993       .  S
C785        C786   1.401       .  A
C785        C790   1.400       .  A
C785        H795   1.084       .  S
C786        C791   1.487       .  S
C786        C787   1.412   1_554  A
C787        C788   1.409       .  A
C787        O792   1.371       .  S
C788        C789   1.407   1_556  A
C788        H793   1.083       .  S
C789        C790   1.412       .  A
C790        O794   1.372       .  S
C791        C796   1.401       .  A
C791        C800   1.387       .  A
O792        H808   0.992       .  S
O794        H805   0.993       .  S
C796        C797   1.408       .  A
C796        O801   1.372       .  S
C797        C798   1.425       .  A
C797        H802   1.082       .  S
C798        C799   1.450       .  A
C799        C800   1.400       .  A
C799        O803   1.373       .  S
C800        H804   1.085       .  S
O801        H806   0.992       .  S
O803        H807   0.995       .  S
C809        C810   1.409       .  A
C809        C814   1.407       .  A
C809        H819   1.082       .  S
C810        C815   1.500       .  S
C810        C811   1.416       .  A
C811        C812   1.400       .  A
C811        O816   1.372       .  S
C812        C813   1.400       .  A
C812        H817   1.084       .  S
C813        C814   1.407       .  A
C814        O818   1.372       .  S
C815        C820   1.408       .  A
C815        C824   1.397       .  A
O816        H832   0.993       .  S
O818        H829   0.992       .  S
C820        C821   1.411       .  A
C820        O825   1.372       .  S
C821        C822   1.415       .  A
C821        H826   1.067       .  S
C822        C823   1.438       .  A
C823        C824   1.398       .  A
C823        O827   1.372       .  S
C824        H828   1.084       .  S
O825        H830   0.992       .  S
O827        H831   0.992       .  S
C833        C834   1.396       .  A
C833        C838   1.417       .  A
C833        H843   1.084       .  S
C834        C839   1.493       .  S
C834        C835   1.393       .  A
C835        C836   1.396       .  A
C835        O840   1.372       .  S
C836        C837   1.437       .  A
C836        H841   1.079       .  S
C837        C838   1.444       .  A
C838        O842   1.370       .  S
C839        C844   1.408       .  A
C839        C848   1.404       .  A
O840        H856   0.992       .  S
O842        H853   0.991       .  S
C844        C845   1.410       .  A
C844        O849   1.371   1_554  S
C845        C846   1.411       .  A
C845        H850   1.083   1_554  S
C846        C847   1.415       .  A
C847        C848   1.401       .  A
C847        O851   1.372       .  S
C848        H852   1.084       .  S
O849        H854   0.991       .  S
O851        H855   0.992       .  S
C857        C858   1.391       .  A
C857        C862   1.394       .  A
C857        H867   1.084       .  S
C858        C863   1.488       .  S
C858        C859   1.405       .  A
C859        C860   1.412       .  A
C859        O864   1.371       .  S
C860        C861   1.414       .  A
C860        H865   1.061       .  S
C861        C862   1.443       .  A
C862        O866   1.378       .  S
C863        C868   1.411       .  A
C863        C872   1.406       .  A
O864        H880   0.991       .  S
O866        H877   0.995       .  S
C868        C869   1.397       .  A
C868        O873   1.372       .  S
C869        C870   1.400       .  A
C869        H874   1.084       .  S
C870        C871   1.410       .  A
C871        C872   1.408       .  A
C871        O875   1.371       .  S
C872        H876   1.083       .  S
O873        H878   0.990       .  S
O875        H879   0.992       .  S
C881        C882   1.384       .  A
C881        C886   1.404       .  A
C881        H891   1.085       .  S
C882        C887   1.477       .  S
C882        C883   1.391       .  A
C883        C884   1.396       .  A
C883        O888   1.375       .  S
C884        C885   1.435       .  A
C884        H889   1.069       .  S
C885        C886   1.448       .  A
C886        O890   1.357       .  S
C887        C892   1.406       .  A
C887        C896   1.404       .  A
O888        H904   0.992       .  S
O890        H901   0.994       .  S
C892        C893   1.389       .  A
C892        O897   1.373       .  S
C893        C894   1.404       .  A
C893        H898   1.084       .  S
C894        C895   1.413       .  A
C895        C896   1.407       .  A
C895        O899   1.371       .  S
C896        H900   1.083       .  S
O897        H902   0.992       .  S
O899        H903   0.992       .  S
C905        C906   1.397       .  A
C905        C910   1.398       .  A
C905        H915   1.084       .  S
C906        C911   1.489       .  S
C906        C907   1.402       .  A
C907        C908   1.404       .  A
C907        O912   1.372       .  S
C908        C909   1.406       .  A
C908        H913   1.045       .  S
C909        C910   1.434       .  A
C910        O914   1.374       .  S
C911        C916   1.410       .  A
C911        C920   1.407       .  A
O912        H928   0.991       .  S
O914        H925   0.991       .  S
C916        C917   1.397       .  A
C916        O921   1.374       .  S
C917        C918   1.402       .  A
C917        H922   1.084       .  S
C918        C919   1.410       .  A
C919        C920   1.407       .  A
C919        O923   1.371       .  S
C920        H924   1.083       .  S
O921        H926   0.993       .  S
O923        H927   0.992       .  S
C929        C930   1.394       .  A
C929        C934   1.393       .  A
C929        H939   1.084       .  S
C930        C935   1.490       .  S
C930        C931   1.403       .  A
C931        C932   1.406       .  A
C931        O936   1.372       .  S
C932        C933   1.411       .  A
C932        H937   1.050       .  S
C933        C934   1.439       .  A
C934        O938   1.374       .  S
C935        C940   1.412       .  A
C935        C944   1.408       .  A
O936        H952   0.991       .  S
O938        H949   0.993       .  S
C940        C941   1.392       .  A
C940        O945   1.373       .  S
C941        C942   1.401       .  A
C941        H946   1.084       .  S
C942        C943   1.409       .  A
C943        C944   1.408       .  A
C943        O947   1.371       .  S
C944        H948   1.083       .  S
O945        H950   0.990       .  S
O947        H951   0.992       .  S
C953        C954   1.401       .  A
C953        C958   1.402       .  A
C953        H963   1.084       .  S
C954        C959   1.485       .  S
C954        C955   1.406       .  A
C955        C956   1.408       .  A
C955        O960   1.371       .  S
C956        C957   1.411       .  A
C956        H961   1.083       .  S
C957        C958   1.415       .  A
C958        O962   1.371       .  S
C959        C964   1.398       .  A
C959        C968   1.391       .  A
O960        H976   0.991       .  S
O962        H973   0.992       .  S
C964        C965   1.407       .  A
C964        O969   1.371       .  S
C965        C966   1.423       .  A
C965        H970   1.065       .  S
C966        C967   1.443       .  A
C967        C968   1.407       .  A
C967        O971   1.373       .  S
C968        H972   1.084       .  S
O969        H974   0.993       .  S
O971        H975   0.993       .  S
C977        C978   1.396       .  A
C977        C982   1.408       .  A
C977        H987   1.083       .  S
C978        C983   1.488       .  S
C978        C979   1.399       .  A
C979        C980   1.400       .  A
C979        O984   1.372       .  S
C980        C981   1.435       .  A
C980        H985   1.082       .  S
C981        C982   1.435       .  A
C982        O986   1.369       .  S
C983        C988   1.409       .  A
C983        C992   1.402       .  A
O984       H1000   0.992       .  S
O986        H997   0.993       .  S
C988        C989   1.405       .  A
C988        O993   1.371       .  S
C989        C990   1.409       .  A
C989        H994   1.083       .  S
C990        C991   1.414       .  A
C991        C992   1.401       .  A
C991        O995   1.371       .  S
C992        H996   1.084       .  S
O993        H998   0.992       .  S
O995        H999   0.992       .  S
C1001      C1002   1.389       .  A
C1001      C1006   1.404       .  A
C1001      H1011   1.085       .  S
C1002      C1007   1.484       .  S
C1002      C1003   1.395       .  A
C1003      C1004   1.404       .  A
C1003      O1008   1.372       .  S
C1004      C1005   1.431       .  A
C1004      H1009   1.079       .  S
C1005      C1006   1.444       .  A
C1006      O1010   1.361       .  S
C1007      C1012   1.407       .  A
C1007      C1016   1.402       .  A
O1008      H1024   0.991       .  S
O1010      H1021   0.993       .  S
C1012      C1013   1.400       .  A
C1012      O1017   1.372       .  S
C1013      C1014   1.407       .  A
C1013      H1018   1.083       .  S
C1014      C1015   1.415       .  A
C1015      C1016   1.408       .  A
C1015      O1019   1.371       .  S
C1016      H1020   1.083       .  S
O1017      H1022   0.992       .  S
O1019      H1023   0.993       .  S
C1025      C1026   1.405       .  A
C1025      C1030   1.401       .  A
C1025      H1035   1.084       .  S
C1026      C1031   1.493       .  S
C1026      C1027   1.408       .  A
C1027      C1028   1.407       .  A
C1027      O1032   1.371       .  S
C1028      C1029   1.409       .  A
C1028      H1033   1.083       .  S
C1029      C1030   1.413       .  A
C1030      O1034   1.372       .  S
C1031      C1036   1.396       .  A
C1031      C1040   1.396       .  A
O1032      H1048   0.992       .  S
O1034      H1045   0.993       .  S
C1036      C1037   1.397       .  A
C1036      O1041   1.373       .  S
C1037      C1038   1.426       .  A
C1037      H1042   1.058       .  S
C1038      C1039   1.443       .  A
C1039      C1040   1.411       .  A
C1039      O1043   1.373       .  S
C1040      H1044   1.083       .  S
O1041      H1046   0.991       .  S
O1043      H1047   0.995       .  S
C1049      C1050   1.404       .  A
C1049      C1054   1.396       .  A
C1049      H1059   1.084       .  S
C1050      C1055   1.485       .  S
C1050      C1051   1.410       .  A
C1051      C1052   1.405       .  A
C1051      O1056   1.372       .  S
C1052      C1053   1.404       .  A
C1052      H1057   1.084       .  S
C1053      C1054   1.408       .  A
C1054      O1058   1.372       .  S
C1055      C1060   1.399       .  A
C1055      C1064   1.395       .  A
O1056      H1072   0.992       .  S
O1058      H1069   0.993       .  S
C1060      C1061   1.401       .  A
C1060      O1065   1.372       .  S
C1061      C1062   1.418       .  A
C1061      H1066   1.055       .  S
C1062      C1063   1.440       .  A
C1063      C1064   1.398       .  A
C1063      O1067   1.376       .  S
C1064      H1068   1.084       .  S
O1065      H1070   0.992       .  S
O1067      H1071   0.994       .  S
C1073      C1074   1.403       .  A
C1073      C1078   1.395       .  A
C1073      H1083   1.084       .  S
C1074      C1079   1.485       .  S
C1074      C1075   1.409       .  A
C1075      C1076   1.407       .  A
C1075      O1080   1.372       .  S
C1076      C1077   1.406       .  A
C1076      H1081   1.083       .  S
C1077      C1078   1.408       .  A
C1078      O1082   1.372       .  S
C1079      C1084   1.401       .  A
C1079      C1088   1.394       .  A
O1080      H1096   0.992       .  S
O1082      H1093   0.991       .  S
C1084      C1085   1.406       .  A
C1084      O1089   1.372       .  S
C1085      C1086   1.412       .  A
C1085      H1090   1.066       .  S
C1086      C1087   1.437       .  A
C1087      C1088   1.394       .  A
C1087      O1091   1.371       .  S
C1088      H1092   1.084       .  S
O1089      H1094   0.991       .  S
O1091      H1095   0.991       .  S
C1097      C1098   1.395       .  A
C1097      C1102   1.409       .  A
C1097      H1107   1.084       .  S
C1098      C1103   1.486       .  S
C1098      C1099   1.396       .  A
C1099      C1100   1.397       .  A
C1099      O1104   1.373       .  S
C1100      C1101   1.427       .  A
C1100      H1105   1.066       .  S
C1101      C1102   1.445       .  A
C1102      O1106   1.372       .  S
C1103      C1108   1.406       .  A
C1103      C1112   1.407       .  A
O1104      H1120   0.992       .  S
O1106      H1117   0.992       .  S
C1108      C1109   1.398       .  A
C1108      O1113   1.371       .  S
C1109      C1110   1.405       .  A
C1109      H1114   1.084       .  S
C1110      C1111   1.409       .  A
C1111      C1112   1.406       .  A
C1111      O1115   1.371       .  S
C1112      H1116   1.083       .  S
O1113      H1118   0.992       .  S
O1115      H1119   0.991       .  S
C1121      C1122   1.395       .  A
C1121      C1126   1.400       .  A
C1121      H1131   1.084       .  S
C1122      C1127   1.498       .  S
C1122      C1123   1.408       .  A
C1123      C1124   1.414       .  A
C1123      O1128   1.372       .  S
C1124      C1125   1.418       .  A
C1124      H1129   1.070       .  S
C1125      C1126   1.437       .  A
C1126      O1130   1.372       .  S
C1127      C1132   1.413       .  A
C1127      C1136   1.406       .  A
O1128      H1144   0.992       .  S
O1130      H1141   0.993       .  S
C1132      C1133   1.399       .  A
C1132      O1137   1.373       .  S
C1133      C1134   1.405       .  A
C1133      H1138   1.083       .  S
C1134      C1135   1.415       .  A
C1135      C1136   1.411       .  A
C1135      O1139   1.371       .  S
C1136      H1140   1.083       .  S
O1137      H1142   0.993       .  S
O1139      H1143   0.990       .  S
C1145      C1146   1.407       .  A
C1145      C1150   1.411       .  A
C1145      H1155   1.083       .  S
C1146      C1151   1.498       .  S
C1146      C1147   1.409       .  A
C1147      C1148   1.406       .  A
C1147      O1152   1.372       .  S
C1148      C1149   1.409       .  A
C1148      H1153   1.083       .  S
C1149      C1150   1.413       .  A
C1150      O1154   1.371       .  S
C1151      C1156   1.397       .  A
C1151      C1160   1.391       .  A
O1152      H1168   0.992       .  S
O1154      H1165   0.991       .  S
C1156      C1157   1.409       .  A
C1156      O1161   1.373       .  S
C1157      C1158   1.427       .  A
C1157      H1162   1.056       .  S
C1158      C1159   1.449       .  A
C1159      C1160   1.410       .  A
C1159      O1163   1.364       .  S
C1160      H1164   1.084       .  S
O1161      H1166   0.993       .  S
O1163      H1167   0.995       .  S
C1169      C1170   1.389       .  A
C1169      C1174   1.407       .  A
C1169      H1179   1.084       .  S
C1170      C1175   1.480       .  S
C1170      C1171   1.392       .  A
C1171      C1172   1.398       .  A
C1171      O1176   1.373       .  S
C1172      C1173   1.434       .  A
C1172      H1177   1.073       .  S
C1173      C1174   1.447       .  A
C1174      O1178   1.363       .  S
C1175      C1180   1.406       .  A
C1175      C1184   1.403       .  A
O1176      H1192   0.992       .  S
O1178      H1189   0.993       .  S
C1180      C1181   1.396       .  A
C1180      O1185   1.372       .  S
C1181      C1182   1.404       .  A
C1181      H1186   1.084       .  S
C1182      C1183   1.411       .  A
C1183      C1184   1.407       .  A
C1183      O1187   1.371       .  S
C1184      H1188   1.083       .  S
O1185      H1190   0.993       .  S
O1187      H1191   0.991       .  S
C1193      C1194   1.404       .  A
C1193      C1198   1.408       .  A
C1193      H1203   1.083       .  S
C1194      C1199   1.489       .  S
C1194      C1195   1.408       .  A
C1195      C1196   1.404       .  A
C1195      O1200   1.372       .  S
C1196      C1197   1.408       .  A
C1196      H1201   1.083       .  S
C1197      C1198   1.414       .  A
C1198      O1202   1.371       .  S
C1199      C1204   1.392       .  A
C1199      C1208   1.396       .  A
O1200      H1216   0.991       .  S
O1202      H1213   0.992       .  S
C1204      C1205   1.396       .  A
C1204      O1209   1.374       .  S
C1205      C1206   1.426       .  A
C1205      H1210   1.064       .  S
C1206      C1207   1.444       .  A
C1207      C1208   1.416       .  A
C1207      O1211   1.377       .  S
C1208      H1212   1.084       .  S
O1209      H1214   0.992       .  S
O1211      H1215   0.992       .  S
C1217      C1218   1.406       .  A
C1217      C1222   1.397       .  A
C1217      H1227   1.083       .  S
C1218      C1223   1.497       .  S
C1218      C1219   1.413       .  A
C1219      C1220   1.410       .  A
C1219      O1224   1.372       .  S
C1220      C1221   1.408       .  A
C1220      H1225   1.083       .  S
C1221      C1222   1.407       .  A
C1222      O1226   1.372       .  S
C1223      C1228   1.399       .  A
C1223      C1232   1.402       .  A
O1224      H1240   0.992       .  S
O1226      H1237   0.993       .  S
C1228      C1229   1.392       .  A
C1228      O1233   1.374       .  S
C1229      C1230   1.430       .  A
C1229      H1234   1.083       .  S
C1230      C1231   1.428       .  A
C1231      C1232   1.417       .  A
C1231      O1235   1.359       .  S
C1232      H1236   1.083       .  S
O1233      H1238   0.992       .  S
O1235      H1239   0.994       .  S
C1241      C1242   1.403       .  A
C1241      C1246   1.402       .  A
C1241      H1251   1.084       .  S
C1242      C1247   1.482       .  S
C1242      C1243   1.407       .  A
C1243      C1244   1.400       .  A
C1243      O1248   1.373       .  S
C1244      C1245   1.407       .  A
C1244      H1249   1.083       .  S
C1245      C1246   1.413       .  A
C1246      O1250   1.371       .  S
C1247      C1252   1.396       .  A
C1247      C1256   1.394       .  A
O1248      H1264   0.992       .  S
O1250      H1261   0.992       .  S
C1252      C1253   1.398       .  A
C1252      O1257   1.373       .  S
C1253      C1254   1.434       .  A
C1253      H1258   1.080       .  S
C1254      C1255   1.437       .  A
C1255      C1256   1.407       .  A
C1255      O1259   1.367       .  S
C1256      H1260   1.084       .  S
O1257      H1262   0.994       .  S
O1259      H1263   0.994       .  S
C1265      C1266   1.404       .  A
C1265      C1270   1.409       .  A
C1265      H1275   1.083       .  S
C1266      C1271   1.486       .  S
C1266      C1267   1.406       .  A
C1267      C1268   1.400       .  A
C1267      O1272   1.372       .  S
C1268      C1269   1.407       .  A
C1268      H1273   1.083       .  S
C1269      C1270   1.414       .  A
C1270      O1274   1.371       .  S
C1271      C1276   1.393       .  A
C1271      C1280   1.393       .  A
O1272      H1288   0.992       .  S
O1274      H1285   0.992       .  S
C1276      C1277   1.398       .  A
C1276      O1281   1.373       .  S
C1277      C1278   1.431       .  A
C1277      H1282   1.058       .  S
C1278      C1279   1.443       .  A
C1279      C1280   1.409       .  A
C1279      O1283   1.370       .  S
C1280      H1284   1.084       .  S
O1281      H1286   0.992       .  S
O1283      H1287   0.992       .  S
C1289      C1290   1.404       .  A
C1289      C1294   1.401       .  A
C1289      H1299   1.084       .  S
C1290      C1295   1.488       .  S
C1290      C1291   1.411       .  A
C1291      C1292   1.403       .  A
C1291      O1296   1.371       .  S
C1292      C1293   1.403       .  A
C1292      H1297   1.084       .  S
C1293      C1294   1.410       .  A
C1294      O1298   1.372       .  S
C1295      C1300   1.393       .  A
C1295      C1304   1.388       .  A
O1296      H1312   0.990       .  S
O1298      H1309   0.992       .  S
C1300      C1301   1.402       .  A
C1300      O1305   1.372       .  S
C1301      C1302   1.422       .  A
C1301      H1306   1.053       .  S
C1302      C1303   1.460       .  A
C1303      C1304   1.405       .  A
C1303      O1307   1.376       .  S
C1304      H1308   1.084       .  S
O1305      H1310   0.993       .  S
O1307      H1311   0.994       .  S
C1313      C1314   1.404       .  A
C1313      C1318   1.412       .  A
C1313      H1323   1.083       .  S
C1314      C1319   1.497       .  S
C1314      C1315   1.410       .  A
C1315      C1316   1.405       .  A
C1315      O1320   1.372       .  S
C1316      C1317   1.408       .  A
C1316      H1321   1.083       .  S
C1317      C1318   1.417       .  A
C1318      O1322   1.371       .  S
C1319      C1324   1.392       .  A
C1319      C1328   1.397       .  A
O1320      H1336   0.991       .  S
O1322      H1333   0.993       .  S
C1324      C1325   1.398       .  A
C1324      O1329   1.373       .  S
C1325      C1326   1.437       .  A
C1325      H1330   1.070       .  S
C1326      C1327   1.448       .  A
C1327      C1328   1.419       .  A
C1327      O1331   1.364       .  S
C1328      H1332   1.084       .  S
O1329      H1334   0.993       .  S
O1331      H1335   0.991       .  S
