geometry optimzed in LAMMPS
_audit_creation_date              2020-12-01 
_audit_creation_method            'lammps2cif' 
_symmetry_space_group_name_H-M    'P1' 
_symmetry_Int_Tables_number       1 
_symmetry_cell_setting            triclinic 
loop_ 
_symmetry_equiv_pos_as_xyz 
  x,y,z 
_cell_length_a                    66.48176619 
_cell_length_b                    66.38711111191374 
_cell_length_c                    48.110337347048045 
_cell_angle_alpha                 89.3017166964469 
_cell_angle_beta                  90.16999333672581 
_cell_angle_gamma                 124.72136755653716 
loop_ 
_atom_site_label 
_atom_site_type_symbol 
_atom_site_fract_x 
_atom_site_fract_y 
_atom_site_fract_z 
_atom_site_charge 
C1          C  0.53822081  0.86425285  0.00081077     0.80400
N2          N  0.53678871  0.87438760  0.47685240    -0.77900
C3          C  0.53104662  0.89096218  0.47738935     0.82800
N4          N  0.52704432  0.89774039  0.50209670    -0.77900
C5          C  0.52920704  0.88836615  0.02628318     0.82900
N6          N  0.53486257  0.87163095  0.02561693    -0.79600
C7          C  0.32588759  0.91500233  0.99943039     0.80400
N8          N  0.33790231  0.92502069  0.02355714    -0.77900
C9          C  0.35931341  0.94750687  0.02381175     0.82800
N10         N  0.36896319  0.96011463  0.99957611    -0.77900
C11         C  0.35738956  0.95010167  0.47513342     0.82900
N12         N  0.33589933  0.92742160  0.47508936    -0.79600
N13         N  0.59360647  0.07860917  0.28051652    -0.06000
N14         N  0.60941098  0.09219480  0.30010314    -0.58100
N15         N  0.58846923  0.05748872  0.21647083    -0.05600
N16         N  0.59976076  0.05566874  0.19514749    -0.60200
N17         N  0.59272058  0.07943431  0.21700617    -0.05200
N18         N  0.60738181  0.09315383  0.19630440    -0.58100
N19         N  0.58939036  0.05669133  0.28052411    -0.04900
N20         N  0.60196701  0.05477360  0.30041641    -0.60600
C21         C  0.61436179  0.07705827  0.31235674     0.96200
C22         C  0.61147779  0.07802044  0.18284858     0.96000
N23         N  0.51893302  0.99295512  0.21651159    -0.06100
N24         N  0.50862439  0.97749583  0.19566922    -0.58700
N25         N  0.54263924  0.00233186  0.28070404    -0.04300
N26         N  0.54909048  0.99419206  0.30165514    -0.59900
N27         N  0.51888744  0.99202853  0.28112191    -0.06200
N28         N  0.50869879  0.97685686  0.30264943    -0.58900
N29         N  0.54260723  0.00295901  0.21691442    -0.03900
N30         N  0.54889163  0.99427914  0.19669218    -0.60000
Mn31       Mn  0.56621976  0.02962600  0.24868401     1.18400
C32         C  0.52754804  0.97852242  0.18356195     0.98300
C33         C  0.52777152  0.97837590  0.31516374     0.99000
N34         N  0.55894851  0.09910877  0.21871622    -0.06200
N35         N  0.56928231  0.11636382  0.19919103    -0.62500
N36         N  0.53528673  0.08672787  0.28282547    -0.05000
N37         N  0.52891772  0.09544389  0.30283895    -0.63200
N38         N  0.55910002  0.09724174  0.28290497    -0.05700
N39         N  0.56937683  0.11317948  0.30334554    -0.62800
N40         N  0.53520401  0.08881816  0.21953152    -0.04600
N41         N  0.52891748  0.09899553  0.20087089    -0.63500
Mn42       Mn  0.57677165  0.08936763  0.24976566     1.10700
C43         C  0.55029780  0.11602305  0.18826028     0.99500
C44         C  0.55025434  0.11174249  0.31558224     0.99600
N45         N  0.48457411  0.01035799  0.28115650    -0.05700
N46         N  0.46834538  0.99544928  0.30004381    -0.61100
N47         N  0.48917332  0.03412360  0.21803438    -0.05000
N48         N  0.47751517  0.03643556  0.19729055    -0.57800
N49         N  0.48535548  0.01237463  0.21772219    -0.06300
N50         N  0.47082280  0.99932951  0.19704448    -0.60700
N51         N  0.48845325  0.03209611  0.28229267    -0.05300
N52         N  0.47507228  0.03248456  0.30230559    -0.57800
Mn53       Mn  0.50134907  0.00120734  0.24907631     1.20200
Mn54       Mn  0.51159021  0.06064263  0.25073622     1.10100
Cl55       Cl  0.53900320  0.04524826  0.24957399    -0.85800
C56         C  0.46271688  0.00949027  0.31319245     0.96500
C57         C  0.46616049  0.01456012  0.18447001     0.96300
C58         C  0.55558531  0.23286823  0.99740132     0.80400
N59         N  0.55900164  0.22430825  0.47356413    -0.77900
C60         C  0.56675204  0.20926524  0.47466822     0.82800
N61         N  0.57090055  0.20267151  0.49966745    -0.77900
C62         C  0.56680410  0.21044494  0.02355227     0.82900
N63         N  0.55904248  0.22545747  0.02239247    -0.79600
C64         C  0.75489163  0.17475244  0.99729544     0.80400
N65         N  0.74305677  0.16402780  0.47333146    -0.77900
C66         C  0.72033566  0.14293359  0.47366636     0.82800
N67         N  0.70914207  0.13249458  0.49839585    -0.77900
C68         C  0.72069811  0.14333459  0.02264483     0.82900
N69         N  0.74351134  0.16455242  0.02197716    -0.79600
N70         N  0.99429426  0.52488907  0.27826096    -0.06000
N71         N  0.97918942  0.51386194  0.29952242    -0.58100
N72         N  0.00391838  0.54924925  0.21460551    -0.05600
N73         N  0.99371710  0.55508298  0.19553111    -0.60200
N74         N  0.99453190  0.52564692  0.21404987    -0.05200
N75         N  0.97792728  0.51498512  0.19422159    -0.58100
N76         N  0.00360714  0.54848241  0.27802075    -0.04900
N77         N  0.99472661  0.55396482  0.29882501    -0.60600
C78         C  0.97962753  0.53221341  0.31202663     0.96200
C79         C  0.97772679  0.53363471  0.18285922     0.96000
N80         N  0.07998285  0.60159407  0.21509195    -0.06100
N81         N  0.09401388  0.61752146  0.19547112    -0.58700
N82         N  0.05730775  0.59656929  0.27845647    -0.04300
N83         N  0.05568468  0.60965177  0.29770168    -0.59900
N84         N  0.07930312  0.60104675  0.27844748    -0.06200
N85         N  0.09317172  0.61741526  0.29732313    -0.58900
N86         N  0.05794419  0.59700194  0.21425455    -0.03900
N87         N  0.05648609  0.60958952  0.19374815    -0.60000
Mn88       Mn  0.03039569  0.57323406  0.24631884     1.18400
C89         C  0.07915576  0.62223826  0.18222526     0.98300
C90         C  0.07821366  0.62246719  0.30928398     0.99000
N91         N  0.01561913  0.49327430  0.21493354    -0.06200
N92         N  0.00249711  0.47833092  0.19458615    -0.62500
N93         N  0.03669289  0.49723730  0.27967289    -0.05000
N94         N  0.03858373  0.48591438  0.30130816    -0.63200
N95         N  0.01456556  0.49239436  0.27859159    -0.05700
N96         N  0.00085841  0.47745720  0.29910585    -0.62800
N97         N  0.03769599  0.49795659  0.21502705    -0.04600
N98         N  0.04018085  0.48655590  0.19437088    -0.63500
Mn99       Mn  0.00404567  0.50840177  0.24633343     1.10700
C100        C  0.01804899  0.47440162  0.18188946     0.99500
C101        C  0.01604234  0.47361898  0.31313537     0.99600
N102        N  0.10011726  0.56840654  0.27988391    -0.05700
N103        N  0.11582287  0.57888660  0.30060415    -0.61100
N104        N  0.09127939  0.54560838  0.21590256    -0.05000
N105        N  0.10039115  0.54004962  0.19545755    -0.57800
N106        N  0.10053258  0.56917988  0.21537527    -0.06300
N107        N  0.11585517  0.58012749  0.19422315    -0.60700
N108        N  0.09075570  0.54480884  0.27941933    -0.05300
N109        N  0.10013699  0.53880602  0.29939743    -0.57800
Mn110      Mn  0.09065880  0.58562289  0.24728309     1.17500
Mn111      Mn  0.06436939  0.52091802  0.24754918     1.10100
Cl112      Cl  0.04737152  0.54705604  0.24687503    -0.85800
C113        C  0.11564345  0.56017666  0.31249977     0.96500
C114        C  0.11557206  0.56170071  0.18211532     0.96300
C115        C  0.22609223  0.54587261  0.49997011     0.80400
N116        N  0.21799138  0.54825672  0.47492227    -0.77900
C117        C  0.20188137  0.55471477  0.47373855     0.82800
N118        N  0.19375705  0.55850696  0.49767443    -0.77900
C119        C  0.20127389  0.55551616  0.02267338     0.82900
N120        N  0.21738558  0.54920385  0.02367752    -0.79600
C121        C  0.91497844  0.33131597  0.50125964     0.80400
N122        N  0.92498337  0.34237144  0.47630542    -0.77900
C123        C  0.94674318  0.36475498  0.47515935     0.82800
N124        N  0.95830130  0.37617373  0.49916192    -0.77900
C125        C  0.94812440  0.36539115  0.02411963     0.82900
N126        N  0.92647271  0.34310074  0.02497887    -0.79600
C127        C  0.85971867  0.53030203  0.49650159     0.80400
N128        N  0.86684721  0.52569194  0.02097345    -0.77900
C129        C  0.88344396  0.51985059  0.02095587     0.82800
N130        N  0.89298221  0.51888394  0.49654077    -0.77900
C131        C  0.88650151  0.52416690  0.47224212     0.82900
N132        N  0.86995869  0.52992847  0.47231774    -0.79600
C133        C  0.16485501  0.75916318  0.49290949     0.80400
N134        N  0.15306038  0.74798679  0.46902336    -0.77900
C135        C  0.13022195  0.72695192  0.46967267     0.82800
N136        N  0.11915587  0.71689900  0.49449959    -0.77900
C137        C  0.13091645  0.72760945  0.01861456     0.82900
N138        N  0.15387208  0.74869541  0.01775955    -0.79600
N139        N  0.52252772  0.49544483  0.21947627    -0.06000
N140        N  0.51059051  0.47915471  0.19962930    -0.58100
N141        N  0.54551839  0.50110750  0.28302155    -0.05600
N142        N  0.54974627  0.48935301  0.30187335    -0.60200
N143        N  0.52240833  0.49352755  0.28379754    -0.05200
N144        N  0.51052176  0.47662055  0.30353566    -0.58100
N145        N  0.54566479  0.50313863  0.21960996    -0.04900
N146        N  0.54990448  0.49214074  0.20020800    -0.60600
C147        C  0.52800257  0.47740645  0.18776593     0.96200
C148        C  0.52786518  0.47426045  0.31462301     0.96000
N149        N  0.60271551  0.57578546  0.28476976    -0.06100
N150        N  0.61765323  0.58709283  0.30592624    -0.58700
N151        N  0.59614673  0.55500347  0.22004893    -0.04300
N152        N  0.60719643  0.55186160  0.19956604    -0.59900
N153        N  0.60268043  0.57780745  0.22029512    -0.06200
N154        N  0.61803752  0.59057535  0.19960519    -0.58900
N155        N  0.59614785  0.55300219  0.28355729    -0.03900
N156        N  0.60674497  0.54842365  0.30345158    -0.60000
Mn157      Mn  0.57120440  0.52784584  0.25154168     1.18400
C158        C  0.62001925  0.56977527  0.31724193     0.98300
C159        C  0.62063426  0.57409140  0.18692388     0.99000
N160        N  0.49454385  0.51965026  0.28528342    -0.06200
N161        N  0.47763375  0.50649530  0.30451493    -0.62500
N162        N  0.50181310  0.54479389  0.22218287    -0.05000
N163        N  0.49144284  0.54948268  0.20205711    -0.63200
N164        N  0.49516024  0.52196890  0.22106390    -0.05700
N165        N  0.48024502  0.51071094  0.19991432    -0.62800
N166        N  0.50118706  0.54250176  0.28552022    -0.04600
N167        N  0.48871975  0.54528912  0.30447928    -0.63500
Mn168      Mn  0.50793254  0.50694054  0.25242691     1.10700
C169        C  0.47433740  0.52283076  0.31631137     0.99500
C170        C  0.47809632  0.52808923  0.18832119     0.99600
N171        N  0.57515606  0.60373240  0.22233798    -0.05700
N172        N  0.58682682  0.62019463  0.20215998    -0.61100
N173        N  0.55209682  0.59436738  0.28661896    -0.05000
N174        N  0.54807535  0.60517298  0.30653894    -0.57800
N175        N  0.57515517  0.60178048  0.28655617    -0.06300
N176        N  0.58721689  0.61748927  0.30679926    -0.60700
N177        N  0.55209974  0.59622227  0.22334936    -0.05300
N178        N  0.54762149  0.60755918  0.20429089    -0.57800
Mn179      Mn  0.58968538  0.59050480  0.25350153     1.20200
Mn180      Mn  0.52650074  0.56971931  0.25453206     1.10100
Cl181      Cl  0.54881506  0.54873075  0.25306189    -0.85800
C182        C  0.56930974  0.62228689  0.19115553     0.96500
C183        C  0.57007199  0.61939027  0.31901824     0.96300
C184        C  0.51354515  0.35233396  0.00575658     0.80400
N185        N  0.50998269  0.36053144  0.02978192    -0.77900
C186        C  0.50319643  0.37635952  0.02910160     0.82800
N187        N  0.50021447  0.38418803  0.00425572    -0.77900
C188        C  0.50446610  0.37679665  0.48012680     0.82900
N189        N  0.51122107  0.36090902  0.48092173    -0.79600
C190        C  0.35423952  0.51606702  0.99912601     0.80400
N191        N  0.36246131  0.51110236  0.47611041    -0.77900
C192        C  0.38037819  0.50719714  0.47823598     0.82800
N193        N  0.39008063  0.50834653  0.00346445    -0.77900
C194        C  0.38249779  0.51392292  0.02642926     0.82900
N195        N  0.36464924  0.51790633  0.02422735    -0.79600
C196        C  0.73406924  0.56340560  0.00506216     0.80400
N197        N  0.72697792  0.56821765  0.02907727    -0.77900
C198        C  0.71092694  0.57466254  0.02875027     0.82800
N199        N  0.70161656  0.57593923  0.00416365    -0.77900
C200        C  0.70811451  0.57060121  0.48003270     0.82900
N201        N  0.72436977  0.56434950  0.48055152    -0.79600
C202        C  0.56898389  0.73675363  0.00385353     0.80400
N203        N  0.57347220  0.72834510  0.02728159    -0.77900
C204        C  0.58066141  0.71291939  0.02560621     0.82800
N205        N  0.58309229  0.70568163  0.00035068    -0.77900
C206        C  0.57803983  0.71346023  0.47680883     0.82900
N207        N  0.57096112  0.72898626  0.47861676    -0.79600
C208        C  0.41422512  0.49796715  0.42098154     0.16100
C209        C  0.42992476  0.49434920  0.40593116    -0.32900
C210        C  0.43587317  0.50356746  0.37861829     0.20500
C211        C  0.42643213  0.51568603  0.36679127     0.02700
C212        C  0.41000928  0.51846330  0.38147086    -0.22700
C213        C  0.40425468  0.50945839  0.40885302     0.11900
S214        S  0.40731326  0.49097705  0.45537995    -0.06300
C215        C  0.39064711  0.50347937  0.45336050    -0.09800
C216        C  0.39033545  0.51228663  0.42721931    -0.26400
S217        S  0.43814671  0.52821343  0.33481588    -0.03600
C218        C  0.45568689  0.51675829  0.33725387    -0.17000
C219        C  0.45237131  0.50367599  0.36142473    -0.15000
H220        H  0.43801392  0.48571330  0.41550556     0.20300
H221        H  0.40291241  0.52822309  0.37238337     0.16400
H222        H  0.38163735  0.52159205  0.42234070     0.18900
H223        H  0.46254488  0.49599009  0.36679248     0.12200
C224        C  0.43857615  0.50991268  0.12301431     0.16100
C225        C  0.42497030  0.49860570  0.09901463    -0.32900
C226        C  0.41492979  0.50957076  0.08514378     0.20500
C227        C  0.41789734  0.53068170  0.09490229     0.02700
C228        C  0.43187623  0.54225842  0.11874556    -0.22700
C229        C  0.44225170  0.53143954  0.13243055     0.11900
S230        S  0.45192912  0.49915819  0.14284671    -0.06300
C231        C  0.46302549  0.52412684  0.16384238    -0.09800
C232        C  0.45655342  0.53986223  0.15579374    -0.26400
S233        S  0.40385894  0.54080184  0.07503277    -0.03600
C234        C  0.39458235  0.51670394  0.05307831    -0.17000
C235        C  0.40181681  0.50164618  0.06102335    -0.15000
H236        H  0.42239517  0.48199827  0.09140550     0.20300
H237        H  0.43461142  0.55897041  0.12623054     0.16400
H238        H  0.46179839  0.55638565  0.16662133     0.18900
H239        H  0.39792972  0.48588591  0.04950631     0.12200
C240        C  0.56996031  0.68495514  0.40537209     0.16100
C241        C  0.56097604  0.67340168  0.37972047    -0.32900
C242        C  0.56993065  0.66024571  0.36937998     0.20500
C243        C  0.58770240  0.65938023  0.38338280     0.02700
C244        C  0.59665361  0.67090697  0.40900672    -0.22700
C245        C  0.58707702  0.68331597  0.41980808     0.11900
S246        S  0.56018147  0.70031364  0.42251417    -0.06300
C247        C  0.57866495  0.70369454  0.44981433    -0.09800
C248        C  0.59205597  0.69394267  0.44535174    -0.26400
S249        S  0.59619550  0.64246584  0.36739147    -0.03600
C250        C  0.57493266  0.63576060  0.34214857    -0.17000
C251        C  0.56234377  0.64647848  0.34578460    -0.15000
H252        H  0.54708855  0.67401074  0.36872700     0.20300
H253        H  0.60998637  0.66966298  0.42040964     0.16400
H254        H  0.60422630  0.69395711  0.46038369     0.18900
H255        H  0.54833220  0.64421937  0.33194422     0.12200
C256        C  0.59226987  0.68209585  0.08539763     0.16100
C257        C  0.59855346  0.66905668  0.10221517    -0.32900
C258        C  0.58686306  0.66049738  0.12817327     0.20500
C259        C  0.56978503  0.66483968  0.13689713     0.02700
C260        C  0.56418007  0.67854352  0.12056144    -0.22700
C261        C  0.57574635  0.68698526  0.09468669     0.11900
S262        S  0.60220728  0.69176948  0.05205363    -0.06300
C263        C  0.58412233  0.70273396  0.05096999    -0.09800
C264        C  0.57134704  0.69918490  0.07523956    -0.26400
S265        S  0.55564933  0.65094629  0.16749780    -0.03600
C266        C  0.57313329  0.63941677  0.16894270    -0.17000
C267        C  0.58921763  0.64617514  0.14688131    -0.15000
H268        H  0.61128672  0.66500687  0.09498597     0.20300
H269        H  0.55068655  0.68172458  0.12730292     0.16400
H270        H  0.55851792  0.70413345  0.07800062     0.18900
H271        H  0.60103383  0.63999278  0.14406447     0.12200
C272        C  0.65418789  0.58201744  0.38591967     0.16100
C273        C  0.66348382  0.58872254  0.41292757    -0.32900
C274        C  0.67568207  0.57881069  0.42395761     0.20500
C275        C  0.67888771  0.56326394  0.40864262     0.02700
C276        C  0.66925704  0.55624749  0.38182265    -0.22700
C277        C  0.65668036  0.56580054  0.37100190     0.11900
S278        S  0.63865402  0.59187255  0.36880113    -0.06300
C279        C  0.63481116  0.57328376  0.34174684    -0.09800
C280        C  0.64535472  0.56052606  0.34573792    -0.26400
S281        S  0.69477630  0.55373288  0.42548763    -0.03600
C282        C  0.69666451  0.57044227  0.45372041    -0.17000
C283        C  0.68560041  0.58276396  0.44997577    -0.15000
H284        H  0.66118907  0.60100855  0.42488096     0.20300
H285        H  0.67132960  0.54375938  0.36997699     0.16400
H286        H  0.64460712  0.54792404  0.33097758     0.18900
H287        H  0.68491041  0.59406860  0.46545888     0.12200
C288        C  0.65887378  0.59034540  0.12035661     0.16100
C289        C  0.66859616  0.59702044  0.09329413    -0.32900
C290        C  0.68194969  0.58797107  0.08372809     0.20500
C291        C  0.68629322  0.57382834  0.10075391     0.02700
C292        C  0.67663931  0.56721697  0.12768245    -0.22700
C293        C  0.66247007  0.57534547  0.13677831     0.11900
S294        S  0.64067080  0.59782662  0.13545256    -0.06300
C295        C  0.63717648  0.57965085  0.16346865    -0.09800
C296        C  0.64988768  0.56898182  0.16134093    -0.26400
S297        S  0.70216653  0.56393868  0.08531846    -0.03600
C298        C  0.70208815  0.57802470  0.05510631    -0.17000
C299        C  0.69091854  0.59035907  0.05733289    -0.15000
H300        H  0.66514968  0.60799686  0.07996018     0.20300
H301        H  0.67927797  0.55543992  0.14062442     0.16400
H302        H  0.64957226  0.55681480  0.17682259     0.18900
H303        H  0.68879362  0.59985650  0.04035199     0.12200
C304        C  0.52583410  0.43085116  0.36993311     0.16100
C305        C  0.53088618  0.41716845  0.38738284    -0.32900
C306        C  0.51639305  0.40631908  0.41132131     0.20500
C307        C  0.49768258  0.40898735  0.41758068     0.02700
C308        C  0.49212042  0.42201107  0.39965435    -0.22700
C309        C  0.50665252  0.43291100  0.37572986     0.11900
S310        S  0.54272340  0.44722720  0.34136369    -0.06300
C311        C  0.52361182  0.45675107  0.33689743    -0.09800
C312        C  0.50501923  0.44744696  0.35652936    -0.26400
S313        S  0.48395803  0.39670358  0.44903345    -0.03600
C314        C  0.50330103  0.38746121  0.45361416    -0.17000
C315        C  0.51942412  0.39359453  0.43171388    -0.15000
H316        H  0.54597478  0.41571076  0.38295885     0.20300
H317        H  0.47762524  0.42424729  0.40462585     0.16400
H318        H  0.49165390  0.45185232  0.35733294     0.18900
H319        H  0.53349858  0.39013502  0.43144147     0.12200
C320        C  0.52556594  0.43349535  0.13477081     0.16100
C321        C  0.53043094  0.41940870  0.11844737    -0.32900
C322        C  0.51525205  0.40738956  0.09560290     0.20500
C323        C  0.49605573  0.40932969  0.08920090     0.02700
C324        C  0.49068404  0.42282063  0.10610100    -0.22700
C325        C  0.50592166  0.43488652  0.12901946     0.11900
S326        S  0.54312474  0.45091259  0.16194924    -0.06300
C327        C  0.52365370  0.45994488  0.16606179    -0.09800
C328        C  0.50449404  0.44982665  0.14727190    -0.26400
S329        S  0.48168627  0.39572148  0.05869556    -0.03600
C330        C  0.50153811  0.38706208  0.05486478    -0.17000
C331        C  0.51815573  0.39421781  0.07629458    -0.15000
H332        H  0.54587562  0.41848216  0.12286243     0.20300
H333        H  0.47580482  0.42450327  0.10108261     0.16400
H334        H  0.49076280  0.45375052  0.14651107     0.18900
H335        H  0.53263371  0.39132975  0.07677365     0.12200
C336        C  0.78107002  0.54814658  0.51825827     0.16100
C337        C  0.79703084  0.54294806  0.52987659    -0.32900
C338        C  0.81226599  0.54097935  0.51170639     0.20500
C339        C  0.81160448  0.54403117  0.48322747     0.02700
C340        C  0.79554936  0.54909710  0.47158723    -0.22700
C341        C  0.78030591  0.55105488  0.48976661     0.11900
S342        S  0.76158957  0.55182034  0.03684844    -0.06300
C343        C  0.75217938  0.55726079  0.00592812    -0.09800
C344        C  0.76365017  0.55615749  0.48252279    -0.26400
S345        S  0.83159101  0.54106389  0.46473172    -0.03600
C346        C  0.84098202  0.53559994  0.49567687    -0.17000
C347        C  0.82908061  0.53610309  0.01900507    -0.15000
H348        H  0.79763617  0.54066969  0.05211769     0.20300
H349        H  0.79503122  0.55149475  0.44935590     0.16400
H350        H  0.76029515  0.55932171  0.46140782     0.18900
H351        H  0.83247325  0.53299777  0.04012663     0.12200
C352        C  0.30210302  0.52353709  0.48279463     0.16100
C353        C  0.28429362  0.52571112  0.47034302    -0.32900
C354        C  0.27105762  0.53118399  0.48758544     0.20500
C355        C  0.27520464  0.53407180  0.51598409     0.02700
C356        C  0.29291446  0.53180483  0.52843230    -0.22700
C357        C  0.30630533  0.52660035  0.51116646     0.11900
S358        S  0.32051915  0.51756910  0.46547250    -0.06300
C359        C  0.33419663  0.51944869  0.99676672    -0.09800
C360        C  0.32465407  0.52424879  0.01931776    -0.26400
S361        S  0.25757064  0.54095254  0.03330520    -0.03600
C362        C  0.24452736  0.54019987  0.50194635    -0.17000
C363        C  0.25345030  0.53470298  0.47936364    -0.15000
H364        H  0.28109378  0.52351011  0.44816606     0.20300
H365        H  0.29629418  0.53426039  0.05056922     0.16400
H366        H  0.33088238  0.52605215  0.04054425     0.18900
H367        H  0.24756080  0.53357247  0.45809185     0.12200
C368        C  0.93513671  0.53452304  0.12989441     0.16100
C369        C  0.92117197  0.54006077  0.11393137    -0.32900
C370        C  0.91079564  0.52697089  0.08936661     0.20500
C371        C  0.91422760  0.50918297  0.08105866     0.02700
C372        C  0.92753803  0.50309990  0.09747606    -0.22700
C373        C  0.93789414  0.51617440  0.12205269     0.11900
S374        S  0.95089819  0.54974468  0.15906371    -0.06300
C375        C  0.96090905  0.53088835  0.16101148    -0.09800
C376        C  0.95237525  0.51371568  0.14015526    -0.26400
S377        S  0.90269009  0.49746631  0.04904938    -0.03600
C378        C  0.89280004  0.51644268  0.04700304    -0.17000
C379        C  0.89806465  0.53088112  0.07010659    -0.15000
H380        H  0.91914366  0.55449220  0.11993611     0.20300
H381        H  0.93038507  0.48934563  0.09091096     0.16400
H382        H  0.95718794  0.50073767  0.13785595     0.18900
H383        H  0.89427108  0.54466936  0.07186690     0.12200
C384        C  0.91972725  0.53632469  0.40299767     0.16100
C385        C  0.93180606  0.54593330  0.37753022    -0.32900
C386        C  0.94377168  0.53606231  0.36629544     0.20500
C387        C  0.94334763  0.51711667  0.37949253     0.02700
C388        C  0.93163971  0.50780865  0.40522639    -0.22700
C389        C  0.92005364  0.51800725  0.41672070     0.11900
S390        S  0.90418989  0.54586510  0.42005715    -0.06300
C391        C  0.89870526  0.52547508  0.44631944    -0.09800
C392        C  0.90822292  0.51188759  0.44181360    -0.26400
S393        S  0.95804853  0.50693317  0.36176469    -0.03600
C394        C  0.96535412  0.52890809  0.33681710    -0.17000
C395        C  0.95672116  0.54315920  0.34193783    -0.15000
H396        H  0.93193621  0.56051412  0.36697432     0.20300
H397        H  0.93160056  0.49330221  0.41583973     0.16400
H398        H  0.90665899  0.49837042  0.45619143     0.18900
H399        H  0.95944328  0.55764536  0.32832419     0.12200
C400        C  0.00688965  0.43725612  0.11618773     0.16100
C401        C  0.00794200  0.42838010  0.09025390    -0.32900
C402        C  0.98590749  0.40849303  0.07928885     0.20500
C403        C  0.96405208  0.39755631  0.09391758     0.02700
C404        C  0.96297622  0.40653885  0.11954769    -0.22700
C405        C  0.98474824  0.42675587  0.13006081     0.11900
S406        S  0.03123011  0.46162155  0.13302275    -0.06300
C407        C  0.01100309  0.45794717  0.15825673    -0.09800
C408        C  0.98696577  0.43867855  0.15398076    -0.26400
S409        S  0.93931138  0.37374552  0.07751503    -0.03600
C410        C  0.95827780  0.37896208  0.05004566    -0.17000
C411        C  0.98265190  0.39798703  0.05377906    -0.15000
H412        H  0.02503317  0.43686076  0.07892637     0.20300
H413        H  0.94578570  0.39839945  0.13058733     0.16400
H414        H  0.97183822  0.43373223  0.16764175     0.18900
H415        H  0.99702715  0.40401316  0.03853503     0.12200
C416        C  0.00403249  0.43741570  0.38117635     0.16100
C417        C  0.00506527  0.42876234  0.40753974    -0.32900
C418        C  0.98332192  0.40814611  0.41849139     0.20500
C419        C  0.96164453  0.39635370  0.40363039     0.02700
C420        C  0.96054743  0.40516222  0.37746183    -0.22700
C421        C  0.98213133  0.42606002  0.36679555     0.11900
S422        S  0.02828153  0.46223084  0.36416801    -0.06300
C423        C  0.00849131  0.45755282  0.33783229    -0.09800
C424        C  0.98452612  0.43773455  0.34210710    -0.26400
S425        S  0.93725709  0.37175416  0.42052078    -0.03600
C426        C  0.95623007  0.37784483  0.44833993    -0.17000
C427        C  0.98028683  0.39768036  0.44427133    -0.15000
H428        H  0.02198873  0.43786477  0.41914226     0.20300
H429        H  0.94352706  0.39630616  0.36606696     0.16400
H430        H  0.96965522  0.43208309  0.32777628     0.18900
H431        H  0.99464050  0.40442700  0.45961276     0.12200
C432        C  0.17374434  0.55228200  0.09360268     0.16100
C433        C  0.16391041  0.54588013  0.12046450    -0.32900
C434        C  0.15193802  0.55624478  0.13011814     0.20500
C435        C  0.15038419  0.57285037  0.11414596     0.02700
C436        C  0.16001277  0.57906682  0.08707147    -0.22700
C437        C  0.17142907  0.56813366  0.07709666     0.11900
S438        S  0.18841449  0.54114049  0.07800942    -0.06300
C439        C  0.19083222  0.55737707  0.04856331    -0.09800
C440        C  0.18100913  0.57093240  0.05101084    -0.26400
S441        S  0.13528858  0.58353653  0.13006947    -0.03600
C442        C  0.13033522  0.56466247  0.15790745    -0.17000
C443        C  0.14022364  0.55128350  0.15510314    -0.15000
H444        H  0.16518393  0.53305044  0.13313734     0.20300
H445        H  0.15835180  0.59155285  0.07421924     0.16400
H446        H  0.18077887  0.58208584  0.03456432     0.18900
H447        H  0.13876424  0.53847211  0.17051752     0.12200
C448        C  0.15141232  0.57118642  0.37987788     0.16100
C449        C  0.16194643  0.57822120  0.40633239    -0.32900
C450        C  0.17284232  0.56690896  0.41718058     0.20500
C451        C  0.17376062  0.54975691  0.40214773     0.02700
C452        C  0.16288170  0.54242901  0.37585064    -0.22700
C453        C  0.15146210  0.55332860  0.36527496     0.11900
S454        S  0.13715791  0.58263848  0.36314915    -0.06300
C455        C  0.13045342  0.56256546  0.33665422    -0.09800
C456        C  0.13914768  0.54807007  0.34058419    -0.26400
S457        S  0.18805104  0.53837587  0.41898900    -0.03600
C458        C  0.19204965  0.55628813  0.44693417    -0.17000
C459        C  0.18309476  0.57054903  0.44297329    -0.15000
H460        H  0.16143074  0.59173144  0.41808972     0.20300
H461        H  0.16304349  0.52862260  0.36429302     0.16400
H462        H  0.13659151  0.53442770  0.32611072     0.18900
H463        H  0.18372790  0.58267722  0.45835688     0.12200
C464        C  0.11116266  0.67386380  0.12782482     0.16100
C465        C  0.12833027  0.69380454  0.11115569    -0.32900
C466        C  0.11977302  0.69903899  0.08744494     0.20500
C467        C  0.09513600  0.68511626  0.08064340     0.02700
C468        C  0.07776963  0.66564054  0.09792709    -0.22700
C469        C  0.08639457  0.66028329  0.12163404     0.11900
S470        S  0.11843186  0.66338672  0.15588217    -0.06300
C471        C  0.08777284  0.64067548  0.15983006    -0.09800
C472        C  0.07273263  0.64129931  0.14029481    -0.26400
S473        S  0.08902234  0.69252612  0.04906650    -0.03600
C474        C  0.11997535  0.71463787  0.04517070    -0.17000
C475        C  0.13401988  0.71632202  0.06749749    -0.15000
H476        H  0.14767938  0.70420747  0.11587981     0.20300
H477        H  0.05854741  0.65455891  0.09254649     0.16400
H478        H  0.05306801  0.62820217  0.13933045     0.18900
H479        H  0.15381508  0.72831276  0.06818438     0.12200
C480        C  0.09401725  0.68469603  0.40887314     0.16100
C481        C  0.07661244  0.66559009  0.39179386    -0.32900
C482        C  0.08519200  0.66076747  0.36788208     0.20500
C483        C  0.10993123  0.67457347  0.36121420     0.02700
C484        C  0.12711567  0.69419477  0.37762641    -0.22700
C485        C  0.11860871  0.69880521  0.40159226     0.11900
S486        S  0.08802450  0.69144597  0.44066732    -0.06300
C487        C  0.11895267  0.71357635  0.44385924    -0.09800
C488        C  0.13289993  0.71567305  0.42128852    -0.26400
S489        S  0.11723733  0.66443946  0.33331358    -0.03600
C490        C  0.08665698  0.64142305  0.33030193    -0.17000
C491        C  0.07157007  0.64184113  0.34975187    -0.15000
H492        H  0.05742940  0.65429383  0.39754322     0.20300
H493        H  0.14645294  0.70472209  0.37260599     0.16400
H494        H  0.15268012  0.72783395  0.42013287     0.18900
H495        H  0.05197792  0.62841590  0.35130595     0.12200
C496        C  0.81724819  0.23466000  0.48262687     0.16100
C497        C  0.83822501  0.25504478  0.47036936    -0.32900
C498        C  0.85622643  0.27280991  0.48807992     0.20500
C499        C  0.85347418  0.27037941  0.51674355     0.02700
C500        C  0.83246212  0.24996404  0.52903206    -0.22700
C501        C  0.81443468  0.23218349  0.51128569     0.11900
S502        S  0.79336976  0.21131115  0.46461347    -0.06300
C503        C  0.77931800  0.19795869  0.49598741    -0.09800
C504        C  0.79264295  0.21108807  0.51913382    -0.26400
S505        S  0.87734354  0.29402139  0.53456979    -0.03600
C506        C  0.89117917  0.30737697  0.50305191    -0.17000
C507        C  0.87782822  0.29399852  0.48007288    -0.15000
H508        H  0.84038449  0.25699925  0.44799764     0.20300
H509        H  0.83024621  0.24806181  0.55140072     0.16400
H510        H  0.78667177  0.20559667  0.04046973     0.18900
H511        H  0.88353382  0.29952260  0.45867832     0.12200
C512        C  0.52926172  0.30538657  0.01915589     0.16100
C513        C  0.53453244  0.28937506  0.03069980    -0.32900
C514        C  0.53909911  0.27611206  0.01235649     0.20500
C515        C  0.53838561  0.27860761  0.98378979     0.02700
C516        C  0.53308004  0.29459756  0.47224789    -0.22700
C517        C  0.52858934  0.30792902  0.99058984     0.11900
S518        S  0.52329178  0.32316642  0.03783523    -0.06300
C519        C  0.51991421  0.33429207  0.00684117    -0.09800
C520        C  0.52324121  0.32447755  0.48339227    -0.26400
S521        S  0.54469333  0.26106559  0.46511818    -0.03600
C522        C  0.54839274  0.25023394  0.99612667    -0.17000
C523        C  0.54481560  0.25986833  0.01956267    -0.15000
H524        H  0.53513041  0.28740447  0.05300264     0.20300
H525        H  0.53257321  0.29663346  0.44994623     0.16400
H526        H  0.52176408  0.32914092  0.46219010     0.18900
H527        H  0.54651229  0.25539572  0.04077644     0.12200
C528        C  0.68961901  0.12942948  0.09378287     0.16100
C529        C  0.68120012  0.13117897  0.11965923    -0.32900
C530        C  0.65961038  0.11025178  0.13013417     0.20500
C531        C  0.64733848  0.08826337  0.11596609     0.02700
C532        C  0.65565845  0.08656328  0.08993049    -0.22700
C533        C  0.67686638  0.10775398  0.07903076     0.11900
S534        S  0.71474372  0.15315402  0.07699927    -0.06300
C535        C  0.70752629  0.13401246  0.04928590    -0.09800
C536        C  0.68699502  0.11031563  0.05332752    -0.26400
S537        S  0.62181509  0.06481896  0.13268345    -0.03600
C538        C  0.62735695  0.08516578  0.15841367    -0.17000
C539        C  0.64801912  0.10866069  0.15435011    -0.15000
H540        H  0.69079081  0.14826668  0.13087879     0.20300
H541        H  0.64579039  0.06961302  0.07845634     0.16400
H542        H  0.67952793  0.09595959  0.03801579     0.18900
H543        H  0.65434622  0.12368310  0.16852684     0.12200
C544        C  0.68994203  0.12935038  0.40251257     0.16100
C545        C  0.68175268  0.13116533  0.37640900    -0.32900
C546        C  0.66181103  0.10966586  0.36498099     0.20500
C547        C  0.65099598  0.08715399  0.37844229     0.02700
C548        C  0.65907700  0.08537185  0.40474434    -0.22700
C549        C  0.67853345  0.10707137  0.41664672     0.11900
S550        S  0.71326822  0.15354860  0.42011257    -0.06300
C551        C  0.70710222  0.13371363  0.44733237    -0.09800
C552        C  0.68815828  0.10950397  0.44267169    -0.26400
S553        S  0.62701975  0.06322767  0.36087633    -0.03600
C554        C  0.63102839  0.08401990  0.33590024    -0.17000
C555        C  0.65027826  0.10801280  0.34067134    -0.15000
H556        H  0.69020859  0.14868171  0.36575584     0.20300
H557        H  0.65023959  0.06795497  0.41569338     0.16400
H558        H  0.68168308  0.09463049  0.45754738     0.18900
H559        H  0.65533863  0.12345396  0.32724249     0.12200
C560        C  0.57660742  0.18141145  0.08663261     0.16100
C561        C  0.58366734  0.16989193  0.10484090    -0.32900
C562        C  0.56867869  0.15740830  0.12799630     0.20500
C563        C  0.54758260  0.15644148  0.13285505     0.02700
C564        C  0.54095720  0.16866501  0.11514093    -0.22700
C565        C  0.55596123  0.18115300  0.09195602     0.11900
S566        S  0.59076806  0.19504102  0.05579510    -0.06300
C567        C  0.56894723  0.20089816  0.05026089    -0.09800
C568        C  0.55174467  0.19276618  0.07135753    -0.26400
S569        S  0.53073685  0.13850335  0.16068798    -0.03600
C570        C  0.55255987  0.13258807  0.16602976    -0.17000
C571        C  0.57183538  0.14406293  0.14726175    -0.15000
H572        H  0.59969052  0.16994001  0.10062798     0.20300
H573        H  0.52441515  0.16781534  0.11876892     0.16400
H574        H  0.53614564  0.19393301  0.07079887     0.18900
H575        H  0.58690062  0.14205285  0.14715708     0.12200
C576        C  0.54715526  0.15145843  0.36999895     0.16100
C577        C  0.54076427  0.16435978  0.38628744    -0.32900
C578        C  0.55558068  0.17709686  0.40914412     0.20500
C579        C  0.57572854  0.17677223  0.41571071     0.02700
C580        C  0.58250828  0.16438181  0.39896540    -0.22700
C581        C  0.56780407  0.15182586  0.37590616     0.11900
S582        S  0.53077671  0.13393966  0.34229166    -0.06300
C583        C  0.55227361  0.12751843  0.33809980    -0.09800
C584        C  0.57104712  0.13833343  0.35735022    -0.26400
S585        S  0.58982530  0.19128111  0.44591668    -0.03600
C586        C  0.56868192  0.19831137  0.44933608    -0.17000
C587        C  0.55172154  0.18982950  0.42809434    -0.15000
H588        H  0.52466004  0.16409292  0.38165008     0.20300
H589        H  0.59824420  0.16411684  0.40401633     0.16400
H590        H  0.58593609  0.13606398  0.35802814     0.18900
H591        H  0.53655120  0.19167327  0.42741307     0.12200
C592        C  0.22826269  0.81839977  0.97834834     0.16100
C593        C  0.24946153  0.83889115  0.96637618    -0.32900
C594        C  0.26757498  0.85628897  0.98439172     0.20500
C595        C  0.26478194  0.85319646  0.01301111     0.02700
C596        C  0.24367218  0.83268252  0.02495308    -0.22700
C597        C  0.22545768  0.81546446  0.00697465     0.11900
S598        S  0.20389255  0.79561725  0.96016727    -0.06300
C599        C  0.18965343  0.78206345  0.49147231    -0.09800
C600        C  0.20335939  0.79465150  0.01465376    -0.26400
S601        S  0.28849497  0.87640327  0.03138444    -0.03600
C602        C  0.30232646  0.89074002  0.00024104    -0.17000
C603        C  0.28915111  0.87785324  0.97688337    -0.15000
H604        H  0.25158618  0.84132271  0.94403340     0.20300
H605        H  0.24141148  0.83041024  0.04729847     0.16400
H606        H  0.19741697  0.78900445  0.03596874     0.18900
H607        H  0.29488769  0.88403060  0.45563642     0.12200
C608        C  0.42859017  0.00396650  0.11888345     0.16100
C609        C  0.41887741  0.00561839  0.09368161    -0.32900
C610        C  0.40090845  0.98358528  0.08085004     0.20500
C611        C  0.39258394  0.96103095  0.09298833     0.02700
C612        C  0.40238373  0.95940134  0.11792192    -0.22700
C613        C  0.42068947  0.98129762  0.13031040     0.11900
S614        S  0.45095909  0.02831292  0.13766791    -0.06300
C615        C  0.44996204  0.00752158  0.16044584    -0.09800
C616        C  0.43299589  0.98323523  0.15395977    -0.26400
S617        S  0.37067983  0.93639442  0.07464105    -0.03600
C618        C  0.37311853  0.95653015  0.04980085    -0.17000
C619        C  0.38991963  0.98110349  0.05572783    -0.15000
H620        H  0.42528966  0.02322985  0.08430287     0.20300
H621        H  0.39625843  0.94178227  0.12707013     0.16400
H622        H  0.42988385  0.96775555  0.16591616     0.18900
H623        H  0.39394934  0.99622203  0.04234080     0.12200
C624        C  0.40999954  0.97509920  0.36542419     0.16100
C625        C  0.38998031  0.95720732  0.38139454    -0.32900
C626        C  0.38484894  0.96467576  0.40586219     0.20500
C627        C  0.39887269  0.98897098  0.41400395     0.02700
C628        C  0.41832332  0.00710959  0.39735956    -0.22700
C629        C  0.42364786  0.99955972  0.37296820     0.11900
S630        S  0.42074563  0.96905530  0.33692422    -0.06300
C631        C  0.44368549  0.99983615  0.33473797    -0.09800
C632        C  0.44287293  0.01400641  0.35503309    -0.26400
S633        S  0.39186088  0.99356114  0.44642091    -0.03600
C634        C  0.36979907  0.96243780  0.44883995    -0.17000
C635        C  0.36778073  0.94948923  0.42544988    -0.15000
H636        H  0.37956974  0.93807301  0.37568870     0.20300
H637        H  0.42954559  0.02604683  0.40381974     0.16400
H638        H  0.45613729  0.03357332  0.35715513     0.18900
H639        H  0.35583787  0.92972358  0.42378854     0.12200
C640        C  0.55100319  0.81583862  0.48594792     0.16100
C641        C  0.55565690  0.79986336  0.47365647    -0.32900
C642        C  0.55703629  0.78369221  0.49117797     0.20500
C643        C  0.55395789  0.78342235  0.51970567     0.02700
C644        C  0.54915331  0.79933466  0.53201350    -0.22700
C645        C  0.54778765  0.81555654  0.51445351     0.11900
S646        S  0.54870891  0.83678769  0.46816725    -0.06300
C647        C  0.54328507  0.84535540  0.99942024    -0.09800
C648        C  0.54335306  0.83250293  0.02235307    -0.26400
S649        S  0.55711925  0.76291509  0.03735960    -0.03600
C650        C  0.56262026  0.75462029  0.00592951    -0.17000
C651        C  0.56184524  0.76711364  0.48312783    -0.15000
H652        H  0.55820775  0.80011068  0.45140663     0.20300
H653        H  0.54675732  0.79919284  0.05428015     0.16400
H654        H  0.54013616  0.83525208  0.04358119     0.18900
H655        H  0.56518430  0.76461689  0.46184358     0.12200
C656        C  0.53551074  0.91790703  0.09659586     0.16100
C657        C  0.54379369  0.92982957  0.12217572    -0.32900
C658        C  0.53347216  0.94187854  0.13201399     0.20500
C659        C  0.51525477  0.94154006  0.11742544     0.02700
C660        C  0.50725678  0.92995332  0.09166164    -0.22700
C661        C  0.51799578  0.91842258  0.08151375     0.11900
S662        S  0.54626771  0.90294126  0.08057134    -0.06300
C663        C  0.52763188  0.89814782  0.05284223    -0.09800
C664        C  0.51356326  0.90729788  0.05629241    -0.26400
S665        S  0.50442082  0.95644428  0.13339801    -0.03600
C666        C  0.52517649  0.96384692  0.15955209    -0.17000
C667        C  0.53951597  0.95501400  0.15603714    -0.15000
H668        H  0.55787890  0.92997301  0.13373069     0.20300
H669        H  0.49345266  0.93014427  0.07989341     0.16400
H670        H  0.50120900  0.90640151  0.04082876     0.18900
H671        H  0.55338139  0.95779082  0.17049350     0.12200
C672        C  0.51528922  0.94146310  0.38258347     0.16100
C673        C  0.50620699  0.92839072  0.40776992    -0.32900
C674        C  0.51964788  0.92059279  0.42071947     0.20500
C675        C  0.54089544  0.92517063  0.40884739     0.02700
C676        C  0.55019849  0.93861567  0.38399533    -0.22700
C677        C  0.53702034  0.94677702  0.37133333     0.11900
S678        S  0.50159496  0.95222291  0.36324308    -0.06300
C679        C  0.52574081  0.96445460  0.34021596    -0.09800
C680        C  0.54326027  0.96023684  0.34722822    -0.26400
S681        S  0.55413092  0.91351001  0.42720683    -0.03600
C682        C  0.53124358  0.90301756  0.45157590    -0.17000
C683        C  0.51419539  0.90814014  0.44555896    -0.15000
H684        H  0.48944635  0.92449984  0.41687705     0.20300
H685        H  0.56699263  0.94255734  0.37492208     0.16400
H686        H  0.55955439  0.96642696  0.33510683     0.18900
H687        H  0.49867545  0.90297700  0.45862400     0.12200
C688        C  0.53822076  0.86425282  0.50081078     0.80400
N689        N  0.53678877  0.87438763  0.97685240    -0.77900
C690        C  0.53104661  0.89096217  0.97738934     0.82800
N691        N  0.52704426  0.89774033  0.00209669    -0.77900
C692        C  0.52920711  0.88836622  0.52628319     0.82900
N693        N  0.53486261  0.87163099  0.52561693    -0.79600
C694        C  0.32588759  0.91500231  0.49943049     0.80400
N695        N  0.33790229  0.92502070  0.52355724    -0.77900
C696        C  0.35931339  0.94750688  0.52381183     0.82800
N697        N  0.36896319  0.96011461  0.49957617    -0.77900
C698        C  0.35738956  0.95010170  0.97513335     0.82900
N699        N  0.33589933  0.92742163  0.97508927    -0.79600
N700        N  0.59360651  0.07860918  0.78051647    -0.06000
N701        N  0.60941101  0.09219480  0.80010314    -0.58100
N702        N  0.58846926  0.05748878  0.71647079    -0.05600
N703        N  0.59976081  0.05566881  0.69514745    -0.60200
N704        N  0.59272061  0.07943436  0.71700615    -0.05200
N705        N  0.60738186  0.09315390  0.69630438    -0.58100
N706        N  0.58939040  0.05669135  0.78052408    -0.04900
N707        N  0.60196702  0.05477359  0.80041640    -0.60600
C708        C  0.61436179  0.07705826  0.81235674     0.96200
C709        C  0.61147785  0.07802051  0.68284858     0.96000
N710        N  0.51893300  0.99295513  0.71651158    -0.06100
N711        N  0.50862437  0.97749585  0.69566918    -0.58700
N712        N  0.54263927  0.00233192  0.78070404    -0.04300
N713        N  0.54909050  0.99419210  0.80165513    -0.59900
N714        N  0.51888747  0.99202859  0.78112189    -0.06200
N715        N  0.50869881  0.97685690  0.80264939    -0.58900
N716        N  0.54260721  0.00295900  0.71691441    -0.03900
N717        N  0.54889160  0.99427910  0.69669220    -0.60000
Mn718      Mn  0.56621977  0.02962602  0.74868398     1.18400
C719        C  0.52754802  0.97852240  0.68356197     0.98300
C720        C  0.52777153  0.97837592  0.81516369     0.99000
N721        N  0.55894856  0.09910884  0.71871623    -0.06200
N722        N  0.56928237  0.11636389  0.69919103    -0.62500
N723        N  0.53528674  0.08672790  0.78282549    -0.05000
N724        N  0.52891774  0.09544392  0.80283896    -0.63200
N725        N  0.55910006  0.09724178  0.78290498    -0.05700
N726        N  0.56937686  0.11317953  0.80334552    -0.62800
N727        N  0.53520407  0.08881826  0.71953155    -0.04600
N728        N  0.52891756  0.09899566  0.70087094    -0.63500
Mn729      Mn  0.57677168  0.08936767  0.74976565     1.10700
C730        C  0.55029787  0.11602314  0.68826031     0.99500
C731        C  0.55025437  0.11174253  0.81558224     0.99600
N732        N  0.48457415  0.01035805  0.78115648    -0.05700
N733        N  0.46834542  0.99544935  0.80004379    -0.61100
N734        N  0.48917334  0.03412367  0.71803442    -0.05000
N735        N  0.47751513  0.03643562  0.69729065    -0.57800
N736        N  0.48535553  0.01237471  0.71772216    -0.06300
N737        N  0.47082287  0.99932962  0.69704443    -0.60700
N738        N  0.48845329  0.03209617  0.78229266    -0.05300
N739        N  0.47507232  0.03248463  0.80230557    -0.57800
Mn740      Mn  0.50134907  0.00120735  0.74907629     1.20200
Mn741      Mn  0.51159025  0.06064269  0.75073623     1.10100
Cl742      Cl  0.53900321  0.04524827  0.74957397    -0.85800
C743        C  0.46271690  0.00949033  0.81319244     0.96500
C744        C  0.46616051  0.01456022  0.68447003     0.96300
C745        C  0.55558538  0.23286829  0.49740129     0.80400
N746        N  0.55900158  0.22430820  0.97356416    -0.77900
C747        C  0.56675195  0.20926517  0.97466826     0.82800
N748        N  0.57090043  0.20267141  0.99966749    -0.77900
C749        C  0.56680418  0.21044501  0.52355224     0.82900
N750        N  0.55904254  0.22545750  0.52239245    -0.79600
C751        C  0.75489162  0.17475242  0.49729542     0.80400
N752        N  0.74305679  0.16402781  0.97333147    -0.77900
C753        C  0.72033566  0.14293360  0.97366637     0.82800
N754        N  0.70914205  0.13249462  0.99839584    -0.77900
C755        C  0.72069813  0.14333458  0.52264483     0.82900
N756        N  0.74351134  0.16455241  0.52197715    -0.79600
N757        N  0.99429432  0.52488905  0.77826103    -0.06000
N758        N  0.97918946  0.51386192  0.79952247    -0.58100
N759        N  0.00391841  0.54924930  0.71460550    -0.05600
N760        N  0.99371715  0.55508304  0.69553108    -0.60200
N761        N  0.99453194  0.52564699  0.71404987    -0.05200
N762        N  0.97792733  0.51498519  0.69422157    -0.58100
N763        N  0.00360717  0.54848239  0.77802082    -0.04900
N764        N  0.99472659  0.55396479  0.79882502    -0.60600
C765        C  0.97962750  0.53221337  0.81202664     0.96200
C766        C  0.97772685  0.53363476  0.68285919     0.96000
N767        N  0.07998286  0.60159410  0.71509202    -0.06100
N768        N  0.09401391  0.61752154  0.69547123    -0.58700
N769        N  0.05730772  0.59656930  0.77845643    -0.04300
N770        N  0.05568468  0.60965181  0.79770161    -0.59900
N771        N  0.07930307  0.60104669  0.77844749    -0.06200
N772        N  0.09317166  0.61741517  0.79732315    -0.58900
N773        N  0.05794418  0.59700192  0.71425456    -0.03900
N774        N  0.05648609  0.60958947  0.69374814    -0.60000
Mn775      Mn  0.03039570  0.57323405  0.74631885     1.18400
C776        C  0.07915577  0.62223828  0.68222532     0.98300
C777        C  0.07821364  0.62246717  0.80928398     0.99000
N778        N  0.01561914  0.49327430  0.71493352    -0.06200
N779        N  0.00249713  0.47833096  0.69458609    -0.62500
N780        N  0.03669291  0.49723728  0.77967285    -0.05000
N781        N  0.03858375  0.48591436  0.80130811    -0.63200
N782        N  0.01456558  0.49239435  0.77859158    -0.05700
N783        N  0.00085844  0.47745721  0.79910584    -0.62800
N784        N  0.03769599  0.49795654  0.71502705    -0.04600
N785        N  0.04018082  0.48655584  0.69437087    -0.63500
Mn786      Mn  0.00404570  0.50840179  0.74633344     1.10700
C787        C  0.01804898  0.47440162  0.68188941     0.99500
C788        C  0.01604238  0.47361899  0.81313536     0.99600
N789        N  0.10011723  0.56840648  0.77988390    -0.05700
N790        N  0.11582284  0.57888657  0.80060414    -0.61100
N791        N  0.09127941  0.54560836  0.71590254    -0.05000
N792        N  0.10039115  0.54004961  0.69545753    -0.57800
N793        N  0.10053259  0.56917988  0.71537524    -0.06300
N794        N  0.11585517  0.58012746  0.69422313    -0.60700
N795        N  0.09075571  0.54480879  0.77941932    -0.05300
N796        N  0.10013701  0.53880599  0.79939743    -0.57800
Mn797      Mn  0.09065877  0.58562285  0.74728309     1.17500
Mn798      Mn  0.06436941  0.52091798  0.74754916     1.10100
Cl799      Cl  0.04737153  0.54705601  0.74687501    -0.85800
C800        C  0.11564344  0.56017664  0.81249977     0.96500
C801        C  0.11557206  0.56170068  0.68211528     0.96300
C802        C  0.22609228  0.54587264  0.99997011     0.80400
N803        N  0.21799144  0.54825676  0.97492226    -0.77900
C804        C  0.20188139  0.55471477  0.97373855     0.82800
N805        N  0.19375710  0.55850697  0.99767444    -0.77900
C806        C  0.20127388  0.55551619  0.52267337     0.82900
N807        N  0.21738558  0.54920391  0.52367752    -0.79600
C808        C  0.91497844  0.33131598  0.00125961     0.80400
N809        N  0.92498337  0.34237145  0.97630540    -0.77900
C810        C  0.94674317  0.36475501  0.97515934     0.82800
N811        N  0.95830126  0.37617375  0.99916193    -0.77900
C812        C  0.94812442  0.36539115  0.52411963     0.82900
N813        N  0.92647273  0.34310075  0.52497888    -0.79600
C814        C  0.85971862  0.53030194  0.99650157     0.80400
N815        N  0.86684721  0.52569196  0.52097348    -0.77900
C816        C  0.88344393  0.51985059  0.52095592     0.82800
N817        N  0.89298217  0.51888387  0.99654071    -0.77900
C818        C  0.88650143  0.52416679  0.97224206     0.82900
N819        N  0.86995861  0.52992837  0.97231771    -0.79600
C820        C  0.16485505  0.75916319  0.99290951     0.80400
N821        N  0.15306045  0.74798682  0.96902336    -0.77900
C822        C  0.13022201  0.72695195  0.96967265     0.82800
N823        N  0.11915593  0.71689902  0.99449956    -0.77900
C824        C  0.13091643  0.72760945  0.51861457     0.82900
N825        N  0.15387205  0.74869539  0.51775954    -0.79600
N826        N  0.52252774  0.49544483  0.71947629    -0.06000
N827        N  0.51059054  0.47915475  0.69962926    -0.58100
N828        N  0.54551844  0.50110759  0.78302161    -0.05600
N829        N  0.54974629  0.48935305  0.80187337    -0.60200
N830        N  0.52240839  0.49352764  0.78379758    -0.05200
N831        N  0.51052178  0.47662058  0.80353564    -0.58100
N832        N  0.54566479  0.50313863  0.71960999    -0.04900
N833        N  0.54990451  0.49214079  0.70020797    -0.60600
C834        C  0.52800262  0.47740651  0.68776589     0.96200
C835        C  0.52786519  0.47426045  0.81462297     0.96000
N836        N  0.60271555  0.57578549  0.78476974    -0.06100
N837        N  0.61765328  0.58709289  0.80592621    -0.58700
N838        N  0.59614674  0.55500347  0.72004890    -0.04300
N839        N  0.60719649  0.55186162  0.69956604    -0.59900
N840        N  0.60268045  0.57780746  0.72029509    -0.06200
N841        N  0.61803759  0.59057537  0.69960519    -0.58900
N842        N  0.59614789  0.55300224  0.78355729    -0.03900
N843        N  0.60674501  0.54842370  0.80345159    -0.60000
Mn844      Mn  0.57120442  0.52784588  0.75154170     1.18400
C845        C  0.62001930  0.56977534  0.81724191     0.98300
C846        C  0.62063436  0.57409143  0.68692392     0.99000
N847        N  0.49454391  0.51965035  0.78528339    -0.06200
N848        N  0.47763381  0.50649539  0.80451490    -0.62500
N849        N  0.50181315  0.54479396  0.72218285    -0.05000
N850        N  0.49144288  0.54948275  0.70205709    -0.63200
N851        N  0.49516030  0.52196897  0.72106388    -0.05700
N852        N  0.48024507  0.51071101  0.69991431    -0.62800
N853        N  0.50118712  0.54250185  0.78552020    -0.04600
N854        N  0.48871980  0.54528920  0.80447927    -0.63500
Mn855      Mn  0.50793258  0.50694061  0.75242691     1.10700
C856        C  0.47433747  0.52283084  0.81631136     0.99500
C857        C  0.47809636  0.52808930  0.68832119     0.99600
N858        N  0.57515612  0.60373246  0.72233795    -0.05700
N859        N  0.58682688  0.62019471  0.70215996    -0.61100
N860        N  0.55209687  0.59436743  0.78661894    -0.05000
N861        N  0.54807537  0.60517299  0.80653894    -0.57800
N862        N  0.57515523  0.60178054  0.78655614    -0.06300
N863        N  0.58721694  0.61748936  0.80679923    -0.60700
N864        N  0.55209980  0.59622235  0.72334934    -0.05300
N865        N  0.54762155  0.60755926  0.70429089    -0.57800
Mn866      Mn  0.58968543  0.59050484  0.75350151     1.20200
Mn867      Mn  0.52650080  0.56971939  0.75453204     1.10100
Cl868      Cl  0.54881510  0.54873081  0.75306186    -0.85800
C869        C  0.56930980  0.62228698  0.69115553     0.96500
C870        C  0.57007201  0.61939031  0.81901823     0.96300
C871        C  0.51354512  0.35233392  0.50575657     0.80400
N872        N  0.50998263  0.36053136  0.52978191    -0.77900
C873        C  0.50319638  0.37635944  0.52910161     0.82800
N874        N  0.50021440  0.38418794  0.50425573    -0.77900
C875        C  0.50446612  0.37679670  0.98012680     0.82900
N876        N  0.51122105  0.36090903  0.98092174    -0.79600
C877        C  0.35423958  0.51606712  0.49912605     0.80400
N878        N  0.36246127  0.51110230  0.97611036    -0.77900
C879        C  0.38037818  0.50719712  0.97823592     0.82800
N880        N  0.39008064  0.50834656  0.50346451    -0.77900
C881        C  0.38249782  0.51392299  0.52642931     0.82900
N882        N  0.36464929  0.51790643  0.52422739    -0.79600
C883        C  0.73406918  0.56340553  0.50506219     0.80400
N884        N  0.72697784  0.56821755  0.52907729    -0.77900
C885        C  0.71092690  0.57466248  0.52875028     0.82800
N886        N  0.70161661  0.57593929  0.50416365    -0.77900
C887        C  0.70811447  0.57060116  0.98003269     0.82900
N888        N  0.72436980  0.56434954  0.98055150    -0.79600
C889        C  0.56898396  0.73675367  0.50385351     0.80400
N890        N  0.57347225  0.72834513  0.52728157    -0.77900
C891        C  0.58066140  0.71291937  0.52560622     0.82800
N892        N  0.58309224  0.70568158  0.50035068    -0.77900
C893        C  0.57803983  0.71346025  0.97680883     0.82900
N894        N  0.57096106  0.72898623  0.97861678    -0.79600
C895        C  0.41422508  0.49796708  0.92098150     0.16100
C896        C  0.42992473  0.49434914  0.90593114    -0.32900
C897        C  0.43587319  0.50356746  0.87861828     0.20500
C898        C  0.42643213  0.51568598  0.86679124     0.02700
C899        C  0.41000923  0.51846321  0.88147081    -0.22700
C900        C  0.40425462  0.50945830  0.90885297     0.11900
S901        S  0.40731331  0.49097710  0.95537994    -0.06300
C902        C  0.39064708  0.50347932  0.95336045    -0.09800
C903        C  0.39033540  0.51228656  0.92721925    -0.26400
S904        S  0.43814672  0.52821339  0.83481585    -0.03600
C905        C  0.45568698  0.51675834  0.83725388    -0.17000
C906        C  0.45237139  0.50367605  0.86142475    -0.15000
H907        H  0.43801390  0.48571325  0.91550553     0.20300
H908        H  0.40291236  0.52822299  0.87238332     0.16400
H909        H  0.38163733  0.52159199  0.92234066     0.18900
H910        H  0.46254498  0.49599016  0.86679250     0.12200
C911        C  0.43857611  0.50991270  0.62301439     0.16100
C912        C  0.42497022  0.49860570  0.59901473    -0.32900
C913        C  0.41492975  0.50957080  0.58514386     0.20500
C914        C  0.41789739  0.53068179  0.59490229     0.02700
C915        C  0.43187630  0.54225853  0.61874555    -0.22700
C916        C  0.44225172  0.53143960  0.63243057     0.11900
S917        S  0.45192910  0.49915823  0.64284679    -0.06300
C918        C  0.46302553  0.52412691  0.66384239    -0.09800
C919        C  0.45655348  0.53986232  0.65579371    -0.26400
S920        S  0.40385902  0.54080195  0.57503276    -0.03600
C921        C  0.39458234  0.51670399  0.55307837    -0.17000
C922        C  0.40181670  0.50164615  0.56102349    -0.15000
H923        H  0.42239502  0.48199826  0.59140562     0.20300
H924        H  0.43461153  0.55897053  0.62623050     0.16400
H925        H  0.46179850  0.55638578  0.66662125     0.18900
H926        H  0.39792949  0.48588582  0.54950654     0.12200
C927        C  0.56996021  0.68495509  0.90537213     0.16100
C928        C  0.56097590  0.67340159  0.87972053    -0.32900
C929        C  0.56993054  0.66024566  0.86938002     0.20500
C930        C  0.58770237  0.65938029  0.88338277     0.02700
C931        C  0.59665363  0.67090706  0.90900666    -0.22700
C932        C  0.58707700  0.68331599  0.91980807     0.11900
S933        S  0.56018137  0.70031355  0.92251427    -0.06300
C934        C  0.57866496  0.70369456  0.94981434    -0.09800
C935        C  0.59205597  0.69394268  0.94535173    -0.26400
S936        S  0.59619549  0.64246592  0.86739146    -0.03600
C937        C  0.57493265  0.63576064  0.84214856    -0.17000
C938        C  0.56234363  0.64647839  0.84578465    -0.15000
H939        H  0.54708835  0.67401061  0.86872707     0.20300
H940        H  0.60998642  0.66966310  0.92040954     0.16400
H941        H  0.60422631  0.69395709  0.96038366     0.18900
H942        H  0.54833203  0.64421919  0.83194436     0.12200
C943        C  0.59226986  0.68209583  0.58539763     0.16100
C944        C  0.59855343  0.66905664  0.60221515    -0.32900
C945        C  0.58686304  0.66049736  0.62817325     0.20500
C946        C  0.56978504  0.66483968  0.63689712     0.02700
C947        C  0.56418007  0.67854353  0.62056144    -0.22700
C948        C  0.57574634  0.68698524  0.59468668     0.11900
S949        S  0.60220724  0.69176943  0.55205361    -0.06300
C950        C  0.58412234  0.70273396  0.55097000    -0.09800
C951        C  0.57134701  0.69918487  0.57523955    -0.26400
S952        S  0.55564937  0.65094636  0.66749782    -0.03600
C953        C  0.57313334  0.63941685  0.66894272    -0.17000
C954        C  0.58921766  0.64617517  0.64688131    -0.15000
H955        H  0.61128670  0.66500682  0.59498596     0.20300
H956        H  0.55068660  0.68172458  0.62730293     0.16400
H957        H  0.55851790  0.70413340  0.57800060     0.18900
H958        H  0.60103387  0.63999284  0.64406450     0.12200
C959        C  0.65418797  0.58201752  0.88591964     0.16100
C960        C  0.66348385  0.58872256  0.91292755    -0.32900
C961        C  0.67568205  0.57881068  0.92395760     0.20500
C962        C  0.67888770  0.56326392  0.90864259     0.02700
C963        C  0.66925712  0.55624757  0.88182257    -0.22700
C964        C  0.65668046  0.56580065  0.87100183     0.11900
S965        S  0.63865408  0.59187262  0.86880112    -0.06300
C966        C  0.63481122  0.57328385  0.84174681    -0.09800
C967        C  0.64535480  0.56052616  0.84573787    -0.26400
S968        S  0.69477634  0.55373291  0.92548758    -0.03600
C969        C  0.69666448  0.57044224  0.95372040    -0.17000
C970        C  0.68560041  0.58276394  0.94997574    -0.15000
H971        H  0.66118910  0.60100857  0.92488097     0.20300
H972        H  0.67132972  0.54375948  0.86997686     0.16400
H973        H  0.64460719  0.54792416  0.83097753     0.18900
H974        H  0.68491045  0.59406865  0.96545887     0.12200
C975        C  0.65887387  0.59034547  0.62035661     0.16100
C976        C  0.66859624  0.59702051  0.59329412    -0.32900
C977        C  0.68194973  0.58797111  0.58372807     0.20500
C978        C  0.68629327  0.57382838  0.60075390     0.02700
C979        C  0.67663931  0.56721698  0.62768239    -0.22700
C980        C  0.66247011  0.57534548  0.63677828     0.11900
S981        S  0.64067094  0.59782672  0.63545261    -0.06300
C982        C  0.63717658  0.57965089  0.66346868    -0.09800
C983        C  0.64988771  0.56898179  0.66134088    -0.26400
S984        S  0.70216657  0.56393874  0.58531847    -0.03600
C985        C  0.70208810  0.57802465  0.55510629    -0.17000
C986        C  0.69091851  0.59035904  0.55733285    -0.15000
H987        H  0.66514974  0.60799693  0.57996018     0.20300
H988        H  0.67927793  0.55543985  0.64062437     0.16400
H989        H  0.64957223  0.55681468  0.67682249     0.18900
H990        H  0.68879359  0.59985643  0.54035195     0.12200
C991        C  0.52583415  0.43085124  0.86993318     0.16100
C992        C  0.53088623  0.41716852  0.88738290    -0.32900
C993        C  0.51639306  0.40631910  0.91132131     0.20500
C994        C  0.49768258  0.40898735  0.91758066     0.02700
C995        C  0.49212041  0.42201107  0.89965433    -0.22700
C996        C  0.50665254  0.43291103  0.87572987     0.11900
S997        S  0.54272348  0.44722731  0.84136380    -0.06300
C998        C  0.52361182  0.45675106  0.83689740    -0.09800
C999        C  0.50501924  0.44744698  0.85652935    -0.26400
S1000       S  0.48395808  0.39670365  0.94903345    -0.03600
C1001       C  0.50330107  0.38746127  0.95361417    -0.17000
C1002       C  0.51942416  0.39359458  0.93171390    -0.15000
H1003       H  0.54597486  0.41571089  0.88295897     0.20300
H1004       H  0.47762521  0.42424725  0.90462580     0.16400
H1005       H  0.49165389  0.45185233  0.85733289     0.18900
H1006       H  0.53349865  0.39013513  0.93144151     0.12200
C1007       C  0.52556594  0.43349538  0.63477077     0.16100
C1008       C  0.53043096  0.41940874  0.61844733    -0.32900
C1009       C  0.51525209  0.40738964  0.59560283     0.20500
C1010       C  0.49605576  0.40932975  0.58920085     0.02700
C1011       C  0.49068406  0.42282068  0.60610097    -0.22700
C1012       C  0.50592166  0.43488653  0.62901947     0.11900
S1013       S  0.54312483  0.45091271  0.66194910    -0.06300
C1014       C  0.52365374  0.45994492  0.66606176    -0.09800
C1015       C  0.50449400  0.44982660  0.64727197    -0.26400
S1016       S  0.48168623  0.39572141  0.55869557    -0.03600
C1017       C  0.50153808  0.38706202  0.55486479    -0.17000
C1018       C  0.51815577  0.39421786  0.57629454    -0.15000
H1019       H  0.54587564  0.41848221  0.62286239     0.20300
H1020       H  0.47580485  0.42450329  0.60108265     0.16400
H1021       H  0.49076273  0.45375041  0.64651123     0.18900
H1022       H  0.53263377  0.39132984  0.57677361     0.12200
C1023       C  0.78107004  0.54814662  0.01825826     0.16100
C1024       C  0.79703089  0.54294814  0.02987659    -0.32900
C1025       C  0.81226605  0.54097944  0.01170639     0.20500
C1026       C  0.81160450  0.54403121  0.98322747     0.02700
C1027       C  0.79554932  0.54909706  0.97158721    -0.22700
C1028       C  0.78030589  0.55105486  0.98976660     0.11900
S1029       S  0.76158952  0.55182026  0.53684844    -0.06300
C1030       C  0.75217937  0.55726076  0.50592812    -0.09800
C1031       C  0.76365017  0.55615750  0.98252278    -0.26400
S1032       S  0.83159096  0.54106381  0.96473172    -0.03600
C1033       C  0.84098198  0.53559988  0.99567688    -0.17000
C1034       C  0.82908058  0.53610305  0.51900506    -0.15000
H1035       H  0.79763614  0.54066961  0.55211769     0.20300
H1036       H  0.79503114  0.55149466  0.94935589     0.16400
H1037       H  0.76029521  0.55932177  0.96140784     0.18900
H1038       H  0.83247322  0.53299771  0.54012662     0.12200
C1039       C  0.30210307  0.52353715  0.98279460     0.16100
C1040       C  0.28429366  0.52571117  0.97034302    -0.32900
C1041       C  0.27105765  0.53118401  0.98758544     0.20500
C1042       C  0.27520467  0.53407183  0.01598410     0.02700
C1043       C  0.29291448  0.53180483  0.02843230    -0.22700
C1044       C  0.30630536  0.52660038  0.01116643     0.11900
S1045       S  0.32051910  0.51756901  0.96547248    -0.06300
C1046       C  0.33419669  0.51944879  0.49676676    -0.09800
C1047       C  0.32465407  0.52424882  0.51931778    -0.26400
S1048       S  0.25757058  0.54095247  0.53330520    -0.03600
C1049       C  0.24452739  0.54019987  0.00194634    -0.17000
C1050       C  0.25345033  0.53470298  0.97936364    -0.15000
H1051       H  0.28109381  0.52351012  0.94816601     0.20300
H1052       H  0.29629421  0.53426046  0.55056922     0.16400
H1053       H  0.33088241  0.52605221  0.54054436     0.18900
H1054       H  0.24756088  0.53357251  0.95809183     0.12200
C1055       C  0.93513666  0.53452302  0.62989447     0.16100
C1056       C  0.92117199  0.54006082  0.61393137    -0.32900
C1057       C  0.91079562  0.52697090  0.58936663     0.20500
C1058       C  0.91422753  0.50918296  0.58105871     0.02700
C1059       C  0.92753793  0.50309984  0.59747614    -0.22700
C1060       C  0.93789401  0.51617433  0.62205279     0.11900
S1061       S  0.95089825  0.54974473  0.65906368    -0.06300
C1062       C  0.96090909  0.53088838  0.66101145    -0.09800
C1063       C  0.95237519  0.51371564  0.64015529    -0.26400
S1064       S  0.90269004  0.49746627  0.54904942    -0.03600
C1065       C  0.89279999  0.51644264  0.54700307    -0.17000
C1066       C  0.89806462  0.53088113  0.57010661    -0.15000
H1067       H  0.91914376  0.55449231  0.61993603     0.20300
H1068       H  0.93038500  0.48934565  0.59091104     0.16400
H1069       H  0.95718790  0.50073763  0.63785593     0.18900
H1070       H  0.89427107  0.54466933  0.57186690     0.12200
C1071       C  0.91972720  0.53632460  0.90299765     0.16100
C1072       C  0.93180601  0.54593322  0.87753020    -0.32900
C1073       C  0.94377167  0.53606228  0.86629543     0.20500
C1074       C  0.94334763  0.51711663  0.87949253     0.02700
C1075       C  0.93163969  0.50780859  0.90522637    -0.22700
C1076       C  0.92005359  0.51800717  0.91672067     0.11900
S1077       S  0.90418984  0.54586501  0.92005711    -0.06300
C1078       C  0.89870518  0.52547497  0.94631939    -0.09800
C1079       C  0.90822286  0.51188750  0.94181357    -0.26400
S1080       S  0.95804848  0.50693311  0.86176466    -0.03600
C1081       C  0.96535409  0.52890805  0.83681708    -0.17000
C1082       C  0.95672116  0.54315917  0.84193784    -0.15000
H1083       H  0.93193614  0.56051405  0.86697431     0.20300
H1084       H  0.93160054  0.49330215  0.91583968     0.16400
H1085       H  0.90665893  0.49837034  0.95619141     0.18900
H1086       H  0.95944331  0.55764539  0.82832417     0.12200
C1087       C  0.00688960  0.43725604  0.61618774     0.16100
C1088       C  0.00794196  0.42838004  0.59025391    -0.32900
C1089       C  0.98590745  0.40849299  0.57928885     0.20500
C1090       C  0.96405203  0.39755625  0.59391759     0.02700
C1091       C  0.96297618  0.40653874  0.61954774    -0.22700
C1092       C  0.98474820  0.42675579  0.63006084     0.11900
S1093       S  0.03123007  0.46162147  0.63302273    -0.06300
C1094       C  0.01100306  0.45794712  0.65825671    -0.09800
C1095       C  0.98696573  0.43867848  0.65398078    -0.26400
S1096       S  0.93931135  0.37374546  0.57751502    -0.03600
C1097       C  0.95827779  0.37896209  0.55004563    -0.17000
C1098       C  0.98265188  0.39798701  0.55377907    -0.15000
H1099       H  0.02503313  0.43686068  0.57892639     0.20300
H1100       H  0.94578567  0.39839929  0.63058741     0.16400
H1101       H  0.97183821  0.43373216  0.66764177     0.18900
H1102       H  0.99702718  0.40401312  0.53853505     0.12200
C1103       C  0.00403258  0.43741575  0.88117633     0.16100
C1104       C  0.00506533  0.42876236  0.90753970    -0.32900
C1105       C  0.98332198  0.40814617  0.91849140     0.20500
C1106       C  0.96164458  0.39635375  0.90363038     0.02700
C1107       C  0.96054750  0.40516225  0.87746180    -0.22700
C1108       C  0.98213139  0.42606005  0.86679552     0.11900
S1109       S  0.02828163  0.46223087  0.86416798    -0.06300
C1110       C  0.00849139  0.45755286  0.83783229    -0.09800
C1111       C  0.98452620  0.43773459  0.84210710    -0.26400
S1112       S  0.93725713  0.37175423  0.92052077    -0.03600
C1113       C  0.95623010  0.37784486  0.94833992    -0.17000
C1114       C  0.98028686  0.39768039  0.94427132    -0.15000
H1115       H  0.02198888  0.43786481  0.91914223     0.20300
H1116       H  0.94352711  0.39630615  0.86606692     0.16400
H1117       H  0.96965529  0.43208315  0.82777624     0.18900
H1118       H  0.99464055  0.40442704  0.95961278     0.12200
C1119       C  0.17374437  0.55228203  0.59360266     0.16100
C1120       C  0.16391049  0.54588019  0.62046449    -0.32900
C1121       C  0.15193804  0.55624479  0.63011812     0.20500
C1122       C  0.15038416  0.57285035  0.61414594     0.02700
C1123       C  0.16001278  0.57906683  0.58707147    -0.22700
C1124       C  0.17142907  0.56813368  0.57709665     0.11900
S1125       S  0.18841455  0.54114056  0.57800940    -0.06300
C1126       C  0.19083223  0.55737712  0.54856329    -0.09800
C1127       C  0.18100908  0.57093239  0.55101081    -0.26400
S1128       S  0.13528853  0.58353651  0.63006946    -0.03600
C1129       C  0.13033520  0.56466244  0.65790742    -0.17000
C1130       C  0.14022370  0.55128353  0.65510313    -0.15000
H1131       H  0.16518413  0.53305056  0.63313737     0.20300
H1132       H  0.15835182  0.59155291  0.57421923     0.16400
H1133       H  0.18077875  0.58208576  0.53456428     0.18900
H1134       H  0.13876439  0.53847222  0.67051752     0.12200
C1135       C  0.15141242  0.57118652  0.87987788     0.16100
C1136       C  0.16194650  0.57822124  0.90633241    -0.32900
C1137       C  0.17284235  0.56690896  0.91718062     0.20500
C1138       C  0.17376066  0.54975692  0.90214775     0.02700
C1139       C  0.16288173  0.54242903  0.87585067    -0.22700
C1140       C  0.15146217  0.55332866  0.86527498     0.11900
S1141       S  0.13715799  0.58263855  0.86314913    -0.06300
C1142       C  0.13045345  0.56256548  0.83665422    -0.09800
C1143       C  0.13914769  0.54807009  0.84058425    -0.26400
S1144       S  0.18805108  0.53837586  0.91898899    -0.03600
C1145       C  0.19204965  0.55628808  0.94693418    -0.17000
C1146       C  0.18309480  0.57054902  0.94297330    -0.15000
H1147       H  0.16143081  0.59173153  0.91808981     0.20300
H1148       H  0.16304346  0.52862262  0.86429310     0.16400
H1149       H  0.13659144  0.53442760  0.82611076     0.18900
H1150       H  0.18372800  0.58267726  0.95835689     0.12200
C1151       C  0.11116268  0.67386385  0.62782489     0.16100
C1152       C  0.12833029  0.69380462  0.61115577    -0.32900
C1153       C  0.11977305  0.69903907  0.58744501     0.20500
C1154       C  0.09513603  0.68511631  0.58064345     0.02700
C1155       C  0.07776967  0.66564057  0.59792714    -0.22700
C1156       C  0.08639459  0.66028335  0.62163412     0.11900
S1157       S  0.11843187  0.66338668  0.65588216    -0.06300
C1158       C  0.08777286  0.64067550  0.65983012    -0.09800
C1159       C  0.07273264  0.64129938  0.64029492    -0.26400
S1160       S  0.08902238  0.69252617  0.54906655    -0.03600
C1161       C  0.11997537  0.71463791  0.54517073    -0.17000
C1162       C  0.13401992  0.71632209  0.56749753    -0.15000
H1163       H  0.14767941  0.70420757  0.61587990     0.20300
H1164       H  0.05854745  0.65455890  0.59254653     0.16400
H1165       H  0.05306805  0.62820227  0.63933057     0.18900
H1166       H  0.15381511  0.72831284  0.56818438     0.12200
C1167       C  0.09401726  0.68469604  0.90887313     0.16100
C1168       C  0.07661246  0.66559007  0.89179387    -0.32900
C1169       C  0.08519201  0.66076747  0.86788208     0.20500
C1170       C  0.10993125  0.67457350  0.86121416     0.02700
C1171       C  0.12711567  0.69419479  0.87762639    -0.22700
C1172       C  0.11860873  0.69880523  0.90159225     0.11900
S1173       S  0.08802453  0.69144603  0.94066730    -0.06300
C1174       C  0.11895272  0.71357638  0.94385923    -0.09800
C1175       C  0.13289995  0.71567307  0.92128849    -0.26400
S1176       S  0.11723734  0.66443950  0.83331354    -0.03600
C1177       C  0.08665700  0.64142305  0.83030192    -0.17000
C1178       C  0.07157008  0.64184113  0.84975186    -0.15000
H1179       H  0.05742938  0.65429375  0.89754327     0.20300
H1180       H  0.14645299  0.70472215  0.87260596     0.16400
H1181       H  0.15268016  0.72783401  0.92013279     0.18900
H1182       H  0.05197797  0.62841593  0.85130591     0.12200
C1183       C  0.81724819  0.23466008  0.98262685     0.16100
C1184       C  0.83822504  0.25504483  0.97036935    -0.32900
C1185       C  0.85622646  0.27280995  0.98807992     0.20500
C1186       C  0.85347419  0.27037946  0.01674355     0.02700
C1187       C  0.83246207  0.24996413  0.02903205    -0.22700
C1188       C  0.81443463  0.23218361  0.01128566     0.11900
S1189       S  0.79336978  0.21131121  0.96461344    -0.06300
C1190       C  0.77931796  0.19795879  0.99598738    -0.09800
C1191       C  0.79264287  0.21108818  0.01913380    -0.26400
S1192       S  0.87734356  0.29402145  0.03456977    -0.03600
C1193       C  0.89117917  0.30737700  0.00305189    -0.17000
C1194       C  0.87782824  0.29399856  0.98007286    -0.15000
H1195       H  0.84038456  0.25699931  0.94799764     0.20300
H1196       H  0.83024610  0.24806189  0.05140070     0.16400
H1197       H  0.78667184  0.20559657  0.54046983     0.18900
H1198       H  0.88353384  0.29952263  0.95867830     0.12200
C1199       C  0.52926166  0.30538655  0.51915585     0.16100
C1200       C  0.53453236  0.28937504  0.53069978    -0.32900
C1201       C  0.53909908  0.27611207  0.51235645     0.20500
C1202       C  0.53838565  0.27860764  0.48378975     0.02700
C1203       C  0.53307999  0.29459752  0.97224793    -0.22700
C1204       C  0.52858929  0.30792900  0.49058982     0.11900
S1205       S  0.52329182  0.32316647  0.53783521    -0.06300
C1206       C  0.51991417  0.33429204  0.50684115    -0.09800
C1207       C  0.52324126  0.32447759  0.98339230    -0.26400
S1208       S  0.54469326  0.26106557  0.96511821    -0.03600
C1209       C  0.54839280  0.25023399  0.49612665    -0.17000
C1210       C  0.54481561  0.25986837  0.51956264    -0.15000
H1211       H  0.53513032  0.28740446  0.55300255     0.20300
H1212       H  0.53257309  0.29663335  0.94994625     0.16400
H1213       H  0.52176410  0.32914097  0.96219012     0.18900
H1214       H  0.54651230  0.25539577  0.54077641     0.12200
C1215       C  0.68961902  0.12942940  0.59378288     0.16100
C1216       C  0.68120013  0.13117892  0.61965921    -0.32900
C1217       C  0.65961041  0.11025176  0.63013415     0.20500
C1218       C  0.64733848  0.08826335  0.61596606     0.02700
C1219       C  0.65565845  0.08656323  0.58993045    -0.22700
C1220       C  0.67686640  0.10775392  0.57903075     0.11900
S1221       S  0.71474374  0.15315396  0.57699934    -0.06300
C1222       C  0.70752637  0.13401242  0.54928596    -0.09800
C1223       C  0.68699509  0.11031559  0.55332753    -0.26400
S1224       S  0.62181509  0.06481899  0.63268344    -0.03600
C1225       C  0.62735701  0.08516584  0.65841366    -0.17000
C1226       C  0.64801921  0.10866071  0.65435010    -0.15000
H1227       H  0.69079082  0.14826663  0.63087876     0.20300
H1228       H  0.64579038  0.06961298  0.57845630     0.16400
H1229       H  0.67952803  0.09595962  0.53801579     0.18900
H1230       H  0.65434639  0.12368314  0.66852684     0.12200
C1231       C  0.68994211  0.12935039  0.90251252     0.16100
C1232       C  0.68175276  0.13116532  0.87640897    -0.32900
C1233       C  0.66181111  0.10966588  0.86498095     0.20500
C1234       C  0.65099602  0.08715401  0.87844227     0.02700
C1235       C  0.65907700  0.08537186  0.90474434    -0.22700
C1236       C  0.67853350  0.10707138  0.91664670     0.11900
S1237       S  0.71326825  0.15354863  0.92011256    -0.06300
C1238       C  0.70710224  0.13371365  0.94733237    -0.09800
C1239       C  0.68815831  0.10950398  0.94267168    -0.26400
S1240       S  0.62701977  0.06322770  0.86087633    -0.03600
C1241       C  0.63102841  0.08401990  0.83590024    -0.17000
C1242       C  0.65027831  0.10801280  0.84067130    -0.15000
H1243       H  0.69020868  0.14868176  0.86575581     0.20300
H1244       H  0.65023954  0.06795500  0.91569338     0.16400
H1245       H  0.68168310  0.09463052  0.95754738     0.18900
H1246       H  0.65533868  0.12345397  0.82724243     0.12200
C1247       C  0.57660749  0.18141147  0.58663257     0.16100
C1248       C  0.58366739  0.16989191  0.60484083    -0.32900
C1249       C  0.56867880  0.15740835  0.62799629     0.20500
C1250       C  0.54758272  0.15644157  0.63285506     0.02700
C1251       C  0.54095730  0.16866505  0.61514093    -0.22700
C1252       C  0.55596129  0.18115300  0.59195598     0.11900
S1253       S  0.59076815  0.19504110  0.55579509    -0.06300
C1254       C  0.56894730  0.20089820  0.55026086    -0.09800
C1255       C  0.55174469  0.19276616  0.57135748    -0.26400
S1256       S  0.53073698  0.13850344  0.66068797    -0.03600
C1257       C  0.55255998  0.13258815  0.66602975    -0.17000
C1258       C  0.57183548  0.14406298  0.64726173    -0.15000
H1259       H  0.59969053  0.16993993  0.60062786     0.20300
H1260       H  0.52441524  0.16781539  0.61876894     0.16400
H1261       H  0.53614571  0.19393296  0.57079885     0.18900
H1262       H  0.58690075  0.14205288  0.64715703     0.12200
C1263       C  0.54715529  0.15145847  0.86999893     0.16100
C1264       C  0.54076431  0.16435983  0.88628741    -0.32900
C1265       C  0.55558067  0.17709688  0.90914412     0.20500
C1266       C  0.57572851  0.17677221  0.91571072     0.02700
C1267       C  0.58250822  0.16438173  0.89896547    -0.22700
C1268       C  0.56780405  0.15182581  0.87590621     0.11900
S1269       S  0.53077676  0.13393974  0.84229162    -0.06300
C1270       C  0.55227361  0.12751844  0.83809982    -0.09800
C1271       C  0.57104709  0.13833336  0.85735028    -0.26400
S1272       S  0.58982521  0.19128104  0.94591673    -0.03600
C1273       C  0.56868185  0.19831132  0.94933612    -0.17000
C1274       C  0.55172151  0.18982950  0.92809435    -0.15000
H1275       H  0.52466010  0.16409301  0.88165002     0.20300
H1276       H  0.59824409  0.16411670  0.90401648     0.16400
H1277       H  0.58593601  0.13606385  0.85802820     0.18900
H1278       H  0.53655119  0.19167330  0.92741305     0.12200
C1279       C  0.22826266  0.81839980  0.47834835     0.16100
C1280       C  0.24946151  0.83889117  0.46637620    -0.32900
C1281       C  0.26757497  0.85628896  0.48439174     0.20500
C1282       C  0.26478191  0.85319648  0.51301113     0.02700
C1283       C  0.24367214  0.83268256  0.52495309    -0.22700
C1284       C  0.22545766  0.81546449  0.50697466     0.11900
S1285       S  0.20389253  0.79561729  0.46016727    -0.06300
C1286       C  0.18965347  0.78206344  0.99147233    -0.09800
C1287       C  0.20335937  0.79465150  0.51465376    -0.26400
S1288       S  0.28849495  0.87640328  0.53138448    -0.03600
C1289       C  0.30232647  0.89073999  0.50024110    -0.17000
C1290       C  0.28915112  0.87785322  0.47688342    -0.15000
H1291       H  0.25158616  0.84132271  0.44403340     0.20300
H1292       H  0.24141141  0.83041032  0.54729848     0.16400
H1293       H  0.19741697  0.78900445  0.53596873     0.18900
H1294       H  0.29488769  0.88403063  0.95563638     0.12200
C1295       C  0.42859014  0.00396652  0.61888348     0.16100
C1296       C  0.41887735  0.00561838  0.59368165    -0.32900
C1297       C  0.40090845  0.98358527  0.58085009     0.20500
C1298       C  0.39258394  0.96103094  0.59298838     0.02700
C1299       C  0.40238375  0.95940136  0.61792197    -0.22700
C1300       C  0.42068947  0.98129765  0.63031045     0.11900
S1301       S  0.45095902  0.02831299  0.63766793    -0.06300
C1302       C  0.44996206  0.00752168  0.66044585    -0.09800
C1303       C  0.43299592  0.98323533  0.65395982    -0.26400
S1304       S  0.37067970  0.93639441  0.57464119    -0.03600
C1305       C  0.37311852  0.95653015  0.54980093    -0.17000
C1306       C  0.38991963  0.98110350  0.55572789    -0.15000
H1307       H  0.42528954  0.02322984  0.58430290     0.20300
H1308       H  0.39625843  0.94178226  0.62707024     0.16400
H1309       H  0.42988391  0.96775566  0.66591628     0.18900
H1310       H  0.39394933  0.99622202  0.54234091     0.12200
C1311       C  0.40999960  0.97509925  0.86542422     0.16100
C1312       C  0.38998039  0.95720736  0.88139458    -0.32900
C1313       C  0.38484896  0.96467581  0.90586216     0.20500
C1314       C  0.39887266  0.98897101  0.91400390     0.02700
C1315       C  0.41832331  0.00710965  0.89735954    -0.22700
C1316       C  0.42364788  0.99955978  0.87296819     0.11900
S1317       S  0.42074569  0.96905532  0.83692431    -0.06300
C1318       C  0.44368551  0.99983619  0.83473797    -0.09800
C1319       C  0.44287294  0.01400645  0.85503307    -0.26400
S1320       S  0.39186087  0.99356114  0.94642089    -0.03600
C1321       C  0.36979909  0.96243782  0.94883991    -0.17000
C1322       C  0.36778075  0.94948924  0.92544983    -0.15000
H1323       H  0.37956992  0.93807305  0.87568880     0.20300
H1324       H  0.42954553  0.02604683  0.90381973     0.16400
H1325       H  0.45613732  0.03357342  0.85715506     0.18900
H1326       H  0.35583795  0.92972365  0.92378849     0.12200
C1327       C  0.55100317  0.81583861  0.98594789     0.16100
C1328       C  0.55565683  0.79986330  0.97365645    -0.32900
C1329       C  0.55703627  0.78369220  0.99117798     0.20500
C1330       C  0.55395792  0.78342240  0.01970568     0.02700
C1331       C  0.54915337  0.79933474  0.03201350    -0.22700
C1332       C  0.54778771  0.81555660  0.01445349     0.11900
S1333       S  0.54870895  0.83678773  0.96816724    -0.06300
C1334       C  0.54328498  0.84535533  0.49942025    -0.09800
C1335       C  0.54335292  0.83250282  0.52235307    -0.26400
S1336       S  0.55711920  0.76291502  0.53735957    -0.03600
C1337       C  0.56262029  0.75462030  0.50592948    -0.17000
C1338       C  0.56184523  0.76711363  0.98312786    -0.15000
H1339       H  0.55820764  0.80011057  0.95140660     0.20300
H1340       H  0.54675721  0.79919273  0.55428015     0.16400
H1341       H  0.54013596  0.83525194  0.54358120     0.18900
H1342       H  0.56518430  0.76461687  0.96184362     0.12200
C1343       C  0.53551080  0.91790711  0.59659586     0.16100
C1344       C  0.54379376  0.92982965  0.62217572    -0.32900
C1345       C  0.53347220  0.94187858  0.63201400     0.20500
C1346       C  0.51525478  0.94154007  0.61742547     0.02700
C1347       C  0.50725676  0.92995329  0.59166170    -0.22700
C1348       C  0.51799579  0.91842259  0.58151378     0.11900
S1349       S  0.54626779  0.90294136  0.58057133    -0.06300
C1350       C  0.52763193  0.89814788  0.55284223    -0.09800
C1351       C  0.51356324  0.90729786  0.55629246    -0.26400
S1352       S  0.50442075  0.95644419  0.63339811    -0.03600
C1353       C  0.52517649  0.96384692  0.65955212    -0.17000
C1354       C  0.53951598  0.95501401  0.65603718    -0.15000
H1355       H  0.55787897  0.92997312  0.63373069     0.20300
H1356       H  0.49345255  0.93014416  0.57989351     0.16400
H1357       H  0.50120891  0.90640142  0.54082884     0.18900
H1358       H  0.55338138  0.95779082  0.67049354     0.12200
C1359       C  0.51528924  0.94146313  0.88258343     0.16100
C1360       C  0.50620700  0.92839073  0.90776988    -0.32900
C1361       C  0.51964788  0.92059279  0.92071942     0.20500
C1362       C  0.54089547  0.92517068  0.90884736     0.02700
C1363       C  0.55019853  0.93861575  0.88399532    -0.22700
C1364       C  0.53702037  0.94677706  0.87133328     0.11900
S1365       S  0.50159500  0.95222296  0.86324306    -0.06300
C1366       C  0.52574081  0.96445458  0.84021588    -0.09800
C1367       C  0.54326027  0.96023685  0.84722816    -0.26400
S1368       S  0.55413097  0.91351010  0.92720682    -0.03600
C1369       C  0.53124359  0.90301756  0.95157587    -0.17000
C1370       C  0.51419537  0.90814010  0.94555889    -0.15000
H1371       H  0.48944639  0.92449987  0.91687703     0.20300
H1372       H  0.56699268  0.94255742  0.87492205     0.16400
H1373       H  0.55955444  0.96642700  0.83510675     0.18900
H1374       H  0.49867542  0.90297695  0.95862394     0.12200
loop_ 
_geom_bond_atom_site_label_1 
_geom_bond_atom_site_label_2 
_geom_bond_distance 
_geom_bond_site_symmetry_2 
_ccdc_geom_bond_type 
C1            N6   1.362       .  A
C1          N689   1.358   1_554  A
C1          C647   1.475   1_554  S
N2            C3   1.355       .  A
N2          C688   1.358       .  A
C3            N4   1.356       .  A
C3          C682   1.465       .  S
N4          C692   1.358       .  A
C5            N6   1.361       .  A
C5          N691   1.358       .  A
C5          C663   1.471       .  S
C7            N8   1.355   1_556  A
C7          N699   1.360       .  A
C7          C602   1.475   1_556  S
N8            C9   1.354       .  A
C9           N10   1.357   1_554  A
C9          C618   1.466       .  S
N10         C698   1.359       .  A
C11          N12   1.363       .  A
C11         N697   1.359       .  A
C11         C634   1.471       .  S
N12         C694   1.360       .  A
N13          N14   1.319       .  A
N13          N19   1.316       .  A
N13         Mn42   2.197       .  S
N14          C21   1.352       .  A
N15          N17   1.317       .  A
N15          N16   1.320       .  A
N15         Mn31   2.200       .  S
N16          C22   1.350       .  A
N17          N18   1.321       .  A
N17         Mn42   2.208       .  S
N18          C22   1.353       .  A
N19          N20   1.321       .  A
N19         Mn31   2.202       .  S
N20          C21   1.352       .  A
C21         C554   1.465       .  S
C22         C538   1.464       .  S
N23          N29   1.315   1_565  A
N23          N24   1.322       .  A
N23         Mn53   2.210   1_565  S
N24          C32   1.354       .  A
N25          N26   1.319   1_545  A
N25          N27   1.316   1_545  A
N25         Mn31   2.196       .  S
N26          C33   1.352       .  A
N27          N28   1.322       .  A
N27         Mn53   2.210   1_565  S
N28          C33   1.353       .  A
N29          N30   1.320   1_545  A
N29         Mn31   2.196       .  S
N30          C32   1.352       .  A
Mn31        Cl55   2.548       .  S
C32         C666   1.470       .  S
C33         C679   1.469       .  S
N34          N35   1.322       .  A
N34          N40   1.316       .  A
N34         Mn42   2.212       .  S
N35          C43   1.354       .  A
N36          N38   1.317       .  A
N36          N37   1.318       .  A
N36         Mn54   2.192       .  S
N37          C44   1.350       .  A
N38          N39   1.323       .  A
N38         Mn42   2.220       .  S
N39          C44   1.355       .  A
N40          N41   1.320       .  A
N40         Mn54   2.195       .  S
N41          C43   1.351       .  A
Mn42        Cl55   2.551       .  S
C43         C570   1.470       .  S
C44         C583   1.468       .  S
N45          N46   1.318   1_545  A
N45          N51   1.315       .  A
N45         Mn53   2.191       .  S
N46          C56   1.350   1_565  A
N47          N48   1.322       .  A
N47          N49   1.316       .  A
N47         Mn54   2.205       .  S
N48          C57   1.353       .  A
N49          N50   1.317   1_545  A
N49         Mn53   2.195       .  S
N50          C57   1.351   1_565  A
N51          N52   1.323       .  A
N51         Mn54   2.210       .  S
N52          C56   1.354       .  A
Mn53        Cl55   2.545       .  S
Mn54        Cl55   2.548       .  S
C56         C631   1.468   1_545  S
C57         C615   1.465       .  S
C58          N63   1.361   1_556  A
C58         N746   1.362       .  A
C58         C522   1.479       .  S
N59          C60   1.360       .  A
N59         C745   1.362       .  A
C60          N61   1.355       .  A
C60         C586   1.469       .  S
N61         C749   1.355       .  A
C62          N63   1.359       .  A
C62         N748   1.355   1_554  A
C62         C567   1.468       .  S
C64          N69   1.358   1_556  A
C64         N752   1.353       .  A
C64        C1190   1.471       .  S
N65          C66   1.354       .  A
N65         C751   1.353       .  A
C66          N67   1.359       .  A
C66         C551   1.467       .  S
N67         C755   1.362       .  A
C68          N69   1.360       .  A
C68         N754   1.362   1_554  A
C68         C535   1.471       .  S
N70          N71   1.319       .  A
N70          N76   1.316   1_655  A
N70         Mn99   2.198   1_655  S
N71          C78   1.351       .  A
N72          N74   1.316   1_455  A
N72          N73   1.319   1_455  A
N72         Mn88   2.194       .  S
N73          C79   1.350       .  A
N74          N75   1.323       .  A
N74         Mn99   2.213   1_655  S
N75          C79   1.354       .  A
N76          N77   1.319   1_455  A
N76         Mn88   2.195       .  S
N77          C78   1.351       .  A
C78         C394   1.461       .  S
C79         C375   1.468       .  S
N80          N86   1.316       .  A
N80          N81   1.318       .  A
N80        Mn110   2.199       .  S
N81          C89   1.350       .  A
N82          N83   1.323       .  A
N82          N84   1.316       .  A
N82         Mn88   2.208       .  S
N83          C90   1.354       .  A
N84          N85   1.317       .  A
N84        Mn110   2.189       .  S
N85          C90   1.349       .  A
N86          N87   1.324       .  A
N86         Mn88   2.211       .  S
N87          C89   1.355       .  A
Mn88       Cl112   2.555       .  S
C89         C471   1.470       .  S
C90         C490   1.464       .  S
N91          N92   1.318       .  A
N91          N97   1.316       .  A
N91         Mn99   2.192       .  S
N92         C100   1.351       .  A
N93          N95   1.316       .  A
N93          N94   1.324       .  A
N93        Mn111   2.215       .  S
N94         C101   1.355       .  A
N95          N96   1.319       .  A
N95         Mn99   2.197       .  S
N96         C101   1.351       .  A
N97          N98   1.323       .  A
N97        Mn111   2.209       .  S
N98         C100   1.353       .  A
Mn99       Cl112   2.542       .  S
C100        C407   1.466       .  S
C101        C423   1.471       .  S
N102        N103   1.323       .  A
N102        N108   1.316       .  A
N102       Mn110   2.221       .  S
N103        C113   1.355       .  A
N104        N105   1.318       .  A
N104        N106   1.315       .  A
N104       Mn111   2.195       .  S
N105        C114   1.351       .  A
N106        N107   1.321       .  A
N106       Mn110   2.200       .  S
N107        C114   1.352       .  A
N108        N109   1.320       .  A
N108       Mn111   2.195       .  S
N109        C113   1.351       .  A
Mn110      Cl112   2.539       .  S
Mn111      Cl112   2.554       .  S
C113        C455   1.471       .  S
C114        C442   1.463       .  S
C115        N116   1.362       .  A
C115        N807   1.357       .  A
C115        C362   1.476       .  S
N116        C117   1.362       .  A
C117        N118   1.359       .  A
C117        C458   1.473       .  S
N118        C806   1.356       .  A
C119        N120   1.355       .  A
C119        N805   1.356   1_554  A
C119        C439   1.468       .  S
N120        C802   1.357   1_554  A
C121        N122   1.360       .  A
C121        N813   1.354       .  A
C121        C506   1.473       .  S
N122        C123   1.361       .  A
C123        N124   1.361       .  A
C123        C426   1.473       .  S
N124        C812   1.358       .  A
C125        N126   1.355       .  A
C125        N811   1.358   1_554  A
C125        C410   1.467       .  S
N126        C808   1.354       .  A
C127        N132   1.357       .  A
C127        N815   1.363       .  A
C127        C346   1.475       .  S
N128        C129   1.362       .  A
N128        C814   1.363   1_554  A
C129        N817   1.356   1_554  A
C129        C378   1.469       .  S
N130        C131   1.354       .  A
N130        C816   1.356       .  A
C131        N132   1.355       .  A
C131        C391   1.464       .  S
C133        N134   1.356       .  A
C133        N825   1.361       .  A
C133        C599   1.475       .  S
N134        C135   1.357       .  A
C135        N136   1.356       .  A
C135        C487   1.468       .  S
N136        C824   1.358       .  A
C137        N138   1.362       .  A
C137        N823   1.358   1_554  A
C137        C474   1.472       .  S
N138        C820   1.361   1_554  A
N139        N140   1.324       .  A
N139        N145   1.316       .  A
N139       Mn168   2.218       .  S
N140        C147   1.356       .  A
N141        N143   1.317       .  A
N141        N142   1.320       .  A
N141       Mn157   2.204       .  S
N142        C148   1.351       .  A
N143        N144   1.324       .  A
N143       Mn168   2.221       .  S
N144        C148   1.356       .  A
N145        N146   1.318       .  A
N145       Mn157   2.192       .  S
N146        C147   1.350       .  A
C147        C327   1.471       .  S
C148        C311   1.475       .  S
N149        N155   1.316       .  A
N149        N150   1.323       .  A
N149       Mn179   2.211       .  S
N150        C158   1.354       .  A
N151        N152   1.318       .  A
N151        N153   1.316       .  A
N151       Mn157   2.200       .  S
N152        C159   1.351       .  A
N153        N154   1.323       .  A
N153       Mn179   2.209       .  S
N154        C159   1.353       .  A
N155        N156   1.318       .  A
N155       Mn157   2.192       .  S
N156        C158   1.350       .  A
Mn157      Cl181   2.549       .  S
C158        C279   1.466       .  S
C159        C295   1.468       .  S
N160        N161   1.323       .  A
N160        N166   1.317       .  A
N160       Mn168   2.213       .  S
N161        C169   1.354       .  A
N162        N164   1.316       .  A
N162        N163   1.320       .  A
N162       Mn180   2.193       .  S
N163        C170   1.351       .  A
N164        N165   1.321       .  A
N164       Mn168   2.217       .  S
N165        C170   1.354       .  A
N166        N167   1.318       .  A
N166       Mn180   2.192       .  S
N167        C169   1.349       .  A
Mn168      Cl181   2.549       .  S
C169        C218   1.464       .  S
C170        C231   1.470       .  S
N171        N172   1.323       .  A
N171        N177   1.315       .  A
N171       Mn179   2.209       .  S
N172        C182   1.354       .  A
N173        N174   1.320       .  A
N173        N175   1.316       .  A
N173       Mn180   2.198       .  S
N174        C183   1.351       .  A
N175        N176   1.322       .  A
N175       Mn179   2.210       .  S
N176        C183   1.353       .  A
N177        N178   1.316       .  A
N177       Mn180   2.187       .  S
N178        C182   1.349       .  A
Mn179      Cl181   2.548       .  S
Mn180      Cl181   2.550       .  S
C182        C266   1.464       .  S
C183        C250   1.467       .  S
C184        N185   1.361       .  A
C184        N876   1.363   1_554  A
C184        C519   1.481       .  S
N185        C186   1.359       .  A
C186        N187   1.356       .  A
C186        C330   1.471       .  S
N187        C875   1.357   1_554  A
C188        N189   1.362       .  A
C188        N874   1.357       .  A
C188        C314   1.474       .  S
N189        C871   1.363       .  A
C190        N195   1.362   1_556  A
C190        N878   1.361       .  A
C190        C359   1.476       .  S
N191        C192   1.359       .  A
N191        C877   1.361       .  A
C192        N880   1.355       .  A
C192        C215   1.471       .  S
N193        C194   1.356       .  A
N193        C879   1.355   1_554  A
C194        N195   1.358       .  A
C194        C234   1.468       .  S
C196        N197   1.358       .  A
C196        N888   1.360   1_554  A
C196        C343   1.475       .  S
N197        C198   1.357       .  A
C198        N199   1.357       .  A
C198        C298   1.471       .  S
N199        C887   1.359   1_554  A
C200        N201   1.361       .  A
C200        N886   1.359       .  A
C200        C282   1.472       .  S
N201        C883   1.360       .  A
C202        N203   1.358       .  A
C202        N894   1.360   1_554  A
C202        C650   1.473       .  S
N203        C204   1.358       .  A
C204        N205   1.355       .  A
C204        C263   1.468       .  S
N205        C893   1.358   1_554  A
C206        N207   1.359       .  A
C206        N892   1.358       .  A
C206        C247   1.470       .  S
N207        C889   1.360       .  A
C208        S214   1.705       .  A
C208        C213   1.387       .  A
C208        C209   1.402       .  A
C209        C210   1.402       .  A
C209        H220   1.083       .  S
C210        C219   1.372       .  A
C210        C211   1.388       .  A
C211        S217   1.704       .  A
C211        C212   1.401       .  A
C212        C213   1.401       .  A
C212        H221   1.083       .  S
C213        C216   1.371       .  A
S214        C215   1.724       .  A
C215        C216   1.386       .  A
C216        H222   1.083       .  S
S217        C218   1.720       .  A
C218        C219   1.383       .  A
C219        H223   1.083       .  S
C224        S230   1.705       .  A
C224        C229   1.387       .  A
C224        C225   1.399       .  A
C225        C226   1.400       .  A
C225        H236   1.083       .  S
C226        C235   1.367       .  A
C226        C227   1.387       .  A
C227        S233   1.712       .  A
C227        C228   1.404       .  A
C228        C229   1.405       .  A
C228        H237   1.083       .  S
C229        C232   1.372       .  A
S230        C231   1.719       .  A
C231        C232   1.388       .  A
C232        H238   1.083       .  S
S233        C234   1.723       .  A
C234        C235   1.383       .  A
C235        H239   1.083       .  S
C240        S246   1.709       .  A
C240        C245   1.387       .  A
C240        C241   1.402       .  A
C241        C242   1.403       .  A
C241        H252   1.083       .  S
C242        C251   1.369       .  A
C242        C243   1.387       .  A
C243        S249   1.708       .  A
C243        C244   1.400       .  A
C244        C245   1.401       .  A
C244        H253   1.083       .  S
C245        C248   1.368       .  A
S246        C247   1.723       .  A
C247        C248   1.385       .  A
C248        H254   1.083       .  S
S249        C250   1.720       .  A
C250        C251   1.386       .  A
C251        H255   1.083       .  S
C256        S262   1.709       .  A
C256        C261   1.387       .  A
C256        C257   1.404       .  A
C257        C258   1.404       .  A
C257        H268   1.083       .  S
C258        C267   1.373       .  A
C258        C259   1.388       .  A
C259        S265   1.700       .  A
C259        C260   1.397       .  A
C260        C261   1.397       .  A
C260        H269   1.083       .  S
C261        C264   1.366       .  A
S262        C263   1.724       .  A
C263        C264   1.383       .  A
C264        H270   1.083       .  S
S265        C266   1.719       .  A
C266        C267   1.386       .  A
C267        H271   1.083       .  S
C272        S278   1.710       .  A
C272        C277   1.387       .  A
C272        C273   1.402       .  A
C273        C274   1.403       .  A
C273        H284   1.083       .  S
C274        C283   1.370       .  A
C274        C275   1.387       .  A
C275        S281   1.708       .  A
C275        C276   1.401       .  A
C276        C277   1.402       .  A
C276        H285   1.083       .  S
C277        C280   1.368       .  A
S278        C279   1.721       .  A
C279        C280   1.385       .  A
C280        H286   1.083       .  S
S281        C282   1.723       .  A
C282        C283   1.387       .  A
C283        H287   1.083       .  S
C288        S294   1.714       .  A
C288        C293   1.387       .  A
C288        C289   1.405       .  A
C289        C290   1.406       .  A
C289        H300   1.083       .  S
C290        C299   1.373       .  A
C290        C291   1.387       .  A
C291        S297   1.704       .  A
C291        C292   1.398       .  A
C292        C293   1.399       .  A
C292        H301   1.083       .  S
C293        C296   1.366       .  A
S294        C295   1.723       .  A
C295        C296   1.382       .  A
C296        H302   1.083       .  S
S297        C298   1.720       .  A
C298        C299   1.389       .  A
C299        H303   1.083       .  S
C304        S310   1.707       .  A
C304        C309   1.387       .  A
C304        C305   1.404       .  A
C305        C306   1.403       .  A
C305        H316   1.083       .  S
C306        C315   1.375       .  A
C306        C307   1.387       .  A
C307        S313   1.708       .  A
C307        C308   1.404       .  A
C308        C309   1.404       .  A
C308        H317   1.083       .  S
C309        C312   1.376       .  A
S310        C311   1.724       .  A
C311        C312   1.387       .  A
C312        H318   1.083       .  S
S313        C314   1.724       .  A
C314        C315   1.387       .  A
C315        H319   1.083       .  S
C320        S326   1.703       .  A
C320        C325   1.388       .  A
C320        C321   1.400       .  A
C321        C322   1.400       .  A
C321        H332   1.083       .  S
C322        C331   1.370       .  A
C322        C323   1.387       .  A
C323        S329   1.710       .  A
C323        C324   1.405       .  A
C324        C325   1.405       .  A
C324        H333   1.083       .  S
C325        C328   1.376       .  A
S326        C327   1.721       .  A
C327        C328   1.387       .  A
C328        H334   1.083       .  S
S329        C330   1.725       .  A
C330        C331   1.384       .  A
C331        H335   1.083       .  S
C336       S1029   1.705       .  A
C336        C341   1.387       .  A
C336        C337   1.402       .  A
C337        C338   1.402       .  A
C337       H1035   1.083       .  S
C338        C339   1.387       .  A
C338       C1034   1.373       .  A
C339        S345   1.705       .  A
C339        C340   1.402       .  A
C340        C341   1.402       .  A
C340        H349   1.083       .  S
C341        C344   1.373       .  A
S342        C343   1.724       .  A
S342       C1023   1.705       .  A
C343       C1031   1.388   1_554  A
C344       C1030   1.388       .  A
C344        H350   1.083       .  S
S345        C346   1.725       .  A
C346       C1034   1.387       .  A
C347       C1025   1.373       .  A
C347       C1033   1.387   1_554  A
C347        H351   1.083       .  S
H348       C1024   1.083       .  S
C352        S358   1.708       .  A
C352        C357   1.386       .  A
C352        C353   1.404       .  A
C353        C354   1.404       .  A
C353        H364   1.083       .  S
C354        C363   1.374       .  A
C354        C355   1.387       .  A
C355       S1048   1.704       .  A
C355        C356   1.401       .  A
C356        C357   1.401       .  A
C356       H1052   1.083       .  S
C357       C1047   1.371       .  A
S358       C1046   1.725       .  A
C359       S1045   1.725       .  A
C359        C360   1.387   1_556  A
C360       C1044   1.371       .  A
C360        H366   1.083       .  S
S361       C1042   1.704       .  A
S361       C1049   1.725       .  A
C362       S1048   1.725       .  A
C362        C363   1.388       .  A
C363        H367   1.083       .  S
H365       C1043   1.083       .  S
C368        S374   1.705       .  A
C368        C373   1.388       .  A
C368        C369   1.402       .  A
C369        C370   1.402       .  A
C369        H380   1.083       .  S
C370        C379   1.372       .  A
C370        C371   1.388       .  A
C371        S377   1.705       .  A
C371        C372   1.402       .  A
C372        C373   1.402       .  A
C372        H381   1.083       .  S
C373        C376   1.372       .  A
S374        C375   1.722       .  A
C375        C376   1.384       .  A
C376        H382   1.083       .  S
S377        C378   1.723       .  A
C378        C379   1.385       .  A
C379        H383   1.083       .  S
C384        S390   1.704       .  A
C384        C389   1.388       .  A
C384        C385   1.399       .  A
C385        C386   1.400       .  A
C385        H396   1.083       .  S
C386        C395   1.366       .  A
C386        C387   1.388       .  A
C387        S393   1.706       .  A
C387        C388   1.400       .  A
C388        C389   1.401       .  A
C388        H397   1.083       .  S
C389        C392   1.368       .  A
S390        C391   1.721       .  A
C391        C392   1.384       .  A
C392        H398   1.083       .  S
S393        C394   1.720       .  A
C394        C395   1.382       .  A
C395        H399   1.083       .  S
C400        S406   1.713       .  A
C400        C405   1.387   1_455  A
C400        C401   1.405       .  A
C401        C402   1.406   1_455  A
C401        H412   1.083       .  S
C402        C411   1.374       .  A
C402        C403   1.388       .  A
C403        S409   1.699       .  A
C403        C404   1.396       .  A
C404        C405   1.397       .  A
C404        H413   1.083       .  S
C405        C408   1.364       .  A
S406        C407   1.723       .  A
C407        C408   1.381   1_455  A
C408        H414   1.083       .  S
S409        C410   1.720       .  A
C410        C411   1.388       .  A
C411        H415   1.083       .  S
C416        S422   1.712       .  A
C416        C421   1.387   1_455  A
C416        C417   1.404       .  A
C417        C418   1.405   1_455  A
C417        H428   1.083       .  S
C418        C427   1.372       .  A
C418        C419   1.387       .  A
C419        S425   1.707       .  A
C419        C420   1.401       .  A
C420        C421   1.402       .  A
C420        H429   1.083       .  S
C421        C424   1.369       .  A
S422        C423   1.723       .  A
C423        C424   1.385   1_455  A
C424        H430   1.083       .  S
S425        C426   1.723       .  A
C426        C427   1.388       .  A
C427        H431   1.083       .  S
C432        S438   1.703       .  A
C432        C437   1.388       .  A
C432        C433   1.398       .  A
C433        C434   1.399       .  A
C433        H444   1.083       .  S
C434        C443   1.365       .  A
C434        C435   1.387       .  A
C435        S441   1.711       .  A
C435        C436   1.403       .  A
C436        C437   1.404       .  A
C436        H445   1.083       .  S
C437        C440   1.371       .  A
S438        C439   1.721       .  A
C439        C440   1.387       .  A
C440        H446   1.083       .  S
S441        C442   1.722       .  A
C442        C443   1.381       .  A
C443        H447   1.083       .  S
C448        S454   1.710       .  A
C448        C453   1.387       .  A
C448        C449   1.402       .  A
C449        C450   1.403       .  A
C449        H460   1.083       .  S
C450        C459   1.370       .  A
C450        C451   1.387       .  A
C451        S457   1.711       .  A
C451        C452   1.403       .  A
C452        C453   1.405       .  A
C452        H461   1.083       .  S
C453        C456   1.372       .  A
S454        C455   1.721       .  A
C455        C456   1.387       .  A
C456        H462   1.083       .  S
S457        C458   1.723       .  A
C458        C459   1.387       .  A
C459        H463   1.083       .  S
C464        S470   1.702       .  A
C464        C469   1.388       .  A
C464        C465   1.399       .  A
C465        C466   1.399       .  A
C465        H476   1.083       .  S
C466        C475   1.369       .  A
C466        C467   1.387       .  A
C467        S473   1.709       .  A
C467        C468   1.405       .  A
C468        C469   1.405       .  A
C468        H477   1.083       .  S
C469        C472   1.376       .  A
S470        C471   1.720       .  A
C471        C472   1.388       .  A
C472        H478   1.083       .  S
S473        C474   1.726       .  A
C474        C475   1.384       .  A
C475        H479   1.083       .  S
C480        S486   1.710       .  A
C480        C485   1.387       .  A
C480        C481   1.404       .  A
C481        C482   1.404       .  A
C481        H492   1.083       .  S
C482        C491   1.373       .  A
C482        C483   1.388       .  A
C483        S489   1.700       .  A
C483        C484   1.396       .  A
C484        C485   1.397       .  A
C484        H493   1.083       .  S
C485        C488   1.365       .  A
S486        C487   1.724       .  A
C487        C488   1.383       .  A
C488        H494   1.084       .  S
S489        C490   1.719       .  A
C490        C491   1.386       .  A
C491        H495   1.083       .  S
C496        S502   1.702       .  A
C496        C501   1.387       .  A
C496        C497   1.400       .  A
C497        C498   1.400       .  A
C497        H508   1.083       .  S
C498        C507   1.371       .  A
C498        C499   1.387       .  A
C499        S505   1.704       .  A
C499        C500   1.402       .  A
C500        C501   1.402       .  A
C500        H509   1.083       .  S
C501        C504   1.372       .  A
S502        C503   1.723       .  A
C503        C751   1.471       .  S
C503        C504   1.387       .  A
C504       H1197   1.083       .  S
S505        C506   1.726       .  A
C506        C507   1.385       .  A
C507        H511   1.083       .  S
H510       C1191   1.083       .  S
C512        S518   1.709       .  A
C512        C517   1.386   1_554  A
C512        C513   1.404       .  A
C513        C514   1.404       .  A
C513        H524   1.083       .  S
C514        C523   1.373       .  A
C514        C515   1.386   1_554  A
C515       S1208   1.710       .  A
C515       C1203   1.404       .  A
C516       C1202   1.404       .  A
C516       C1204   1.405       .  A
C516        H525   1.083       .  S
C517       C1203   1.405       .  A
C517       C1207   1.374       .  A
S518        C519   1.726       .  A
C519       C1207   1.389   1_554  A
C520       C1204   1.374       .  A
C520       C1206   1.389       .  A
C520        H526   1.083       .  S
S521       C1202   1.710       .  A
S521       C1209   1.725       .  A
C522       S1208   1.725       .  A
C522        C523   1.389   1_556  A
C523        H527   1.083       .  S
C528        S534   1.704       .  A
C528        C533   1.387       .  A
C528        C529   1.399       .  A
C529        C530   1.400       .  A
C529        H540   1.083       .  S
C530        C539   1.368       .  A
C530        C531   1.388       .  A
C531        S537   1.708       .  A
C531        C532   1.402       .  A
C532        C533   1.403       .  A
C532        H541   1.083       .  S
C533        C536   1.371       .  A
S534        C535   1.722       .  A
C535        C536   1.387       .  A
C536        H542   1.083       .  S
S537        C538   1.722       .  A
C538        C539   1.383       .  A
C539        H543   1.083       .  S
C544        S550   1.700       .  A
C544        C549   1.388       .  A
C544        C545   1.398       .  A
C545        C546   1.399       .  A
C545        H556   1.083       .  S
C546        C555   1.367       .  A
C546        C547   1.387       .  A
C547        S553   1.708       .  A
C547        C548   1.403       .  A
C548        C549   1.403       .  A
C548        H557   1.083       .  S
C549        C552   1.373       .  A
S550        C551   1.721       .  A
C551        C552   1.386       .  A
C552        H558   1.083       .  S
S553        C554   1.721       .  A
C554        C555   1.383       .  A
C555        H559   1.083       .  S
C560        S566   1.706       .  A
C560        C565   1.387       .  A
C560        C561   1.401       .  A
C561        C562   1.401       .  A
C561        H572   1.083       .  S
C562        C571   1.371       .  A
C562        C563   1.387       .  A
C563        S569   1.708       .  A
C563        C564   1.402       .  A
C564        C565   1.403       .  A
C564        H573   1.083       .  S
C565        C568   1.371       .  A
S566        C567   1.722       .  A
C567        C568   1.386       .  A
C568        H574   1.083       .  S
S569        C570   1.723       .  A
C570        C571   1.384       .  A
C571        H575   1.083       .  S
C576        S582   1.703       .  A
C576        C581   1.388       .  A
C576        C577   1.400       .  A
C577        C578   1.401       .  A
C577        H588   1.083       .  S
C578        C587   1.371       .  A
C578        C579   1.387       .  A
C579        S585   1.708       .  A
C579        C580   1.403       .  A
C580        C581   1.403       .  A
C580        H589   1.083       .  S
C581        C584   1.373       .  A
S582        C583   1.721       .  A
C583        C584   1.385       .  A
C584        H590   1.083       .  S
S585        C586   1.724       .  A
C586        C587   1.384       .  A
C587        H591   1.083       .  S
C592        S598   1.706       .  A
C592        C597   1.387   1_556  A
C592        C593   1.404       .  A
C593        C594   1.403       .  A
C593        H604   1.083       .  S
C594        C603   1.374       .  A
C594        C595   1.387   1_556  A
C595        S601   1.702       .  A
C595        C596   1.401       .  A
C596        C597   1.401       .  A
C596        H605   1.083       .  S
C597        C600   1.372       .  A
S598       C1286   1.726       .  A
C599       S1285   1.726       .  A
C599       C1287   1.386       .  A
C600       C1286   1.386   1_554  A
C600        H606   1.083       .  S
S601        C602   1.724       .  A
C602        C603   1.388   1_554  A
C603       H1294   1.083       .  S
H607       C1290   1.083       .  S
C608        S614   1.712       .  A
C608        C613   1.387   1_545  A
C608        C609   1.404       .  A
C609        C610   1.405   1_545  A
C609        H620   1.083       .  S
C610        C619   1.373       .  A
C610        C611   1.388       .  A
C611        S617   1.700       .  A
C611        C612   1.396       .  A
C612        C613   1.397       .  A
C612        H621   1.083       .  S
C613        C616   1.363       .  A
S614        C615   1.723       .  A
C615        C616   1.381   1_545  A
C616        H622   1.083       .  S
S617        C618   1.720       .  A
C618        C619   1.387       .  A
C619        H623   1.083       .  S
C624        S630   1.702       .  A
C624        C629   1.388       .  A
C624        C625   1.398       .  A
C625        C626   1.399       .  A
C625        H636   1.083       .  S
C626        C635   1.368       .  A
C626        C627   1.387       .  A
C627        S633   1.709       .  A
C627        C628   1.404   1_565  A
C628        C629   1.404   1_545  A
C628        H637   1.083       .  S
C629        C632   1.374   1_565  A
S630        C631   1.720       .  A
C631        C632   1.386   1_565  A
C632        H638   1.083       .  S
S633        C634   1.725       .  A
C634        C635   1.384       .  A
C635        H639   1.083       .  S
C640        S646   1.703       .  A
C640        C645   1.387       .  A
C640        C641   1.400       .  A
C641        C642   1.400       .  A
C641        H652   1.083       .  S
C642        C651   1.369       .  A
C642        C643   1.387       .  A
C643       S1336   1.708       .  A
C643        C644   1.403       .  A
C644        C645   1.404       .  A
C644       H1340   1.083       .  S
C645       C1335   1.373       .  A
S646       C1334   1.724       .  A
C647       S1333   1.724       .  A
C647        C648   1.388   1_556  A
C648       C1332   1.373       .  A
C648        H654   1.083       .  S
S649        C650   1.725       .  A
S649       C1330   1.708       .  A
C650       C1338   1.386   1_554  A
C651       C1337   1.386       .  A
C651        H655   1.083       .  S
H653       C1331   1.083       .  S
C656        S662   1.710       .  A
C656        C661   1.387       .  A
C656        C657   1.403       .  A
C657        C658   1.404       .  A
C657        H668   1.083       .  S
C658        C667   1.371       .  A
C658        C659   1.387       .  A
C659        S665   1.709       .  A
C659        C660   1.401       .  A
C660        C661   1.403       .  A
C660        H669   1.083       .  S
C661        C664   1.370       .  A
S662        C663   1.723       .  A
C663        C664   1.386       .  A
C664        H670   1.083       .  S
S665        C666   1.721       .  A
C666        C667   1.386       .  A
C667        H671   1.083       .  S
C672        S678   1.710       .  A
C672        C677   1.387       .  A
C672        C673   1.403       .  A
C673        C674   1.404       .  A
C673        H684   1.083       .  S
C674        C683   1.371       .  A
C674        C675   1.388       .  A
C675        S681   1.705       .  A
C675        C676   1.399       .  A
C676        C677   1.401       .  A
C676        H685   1.083       .  S
C677        C680   1.368       .  A
S678        C679   1.723       .  A
C679        C680   1.384       .  A
C680        H686   1.083       .  S
S681        C682   1.720       .  A
C682        C683   1.385       .  A
C683        H687   1.083       .  S
C688        N693   1.362       .  A
C688       C1334   1.475       .  S
N689        C690   1.355       .  A
C690        N691   1.356   1_556  A
C690       C1369   1.465       .  S
C692        N693   1.361       .  A
C692       C1350   1.471       .  S
C694        N695   1.355       .  A
C694       C1289   1.475       .  S
N695        C696   1.354       .  A
C696        N697   1.357       .  A
C696       C1305   1.466       .  S
C698        N699   1.363       .  A
C698       C1321   1.471       .  S
N700        N701   1.319       .  A
N700        N706   1.316       .  A
N700       Mn729   2.197       .  S
N701        C708   1.352       .  A
N702        N704   1.317       .  A
N702        N703   1.320       .  A
N702       Mn718   2.200       .  S
N703        C709   1.350       .  A
N704        N705   1.321       .  A
N704       Mn729   2.208       .  S
N705        C709   1.353       .  A
N706        N707   1.321       .  A
N706       Mn718   2.202       .  S
N707        C708   1.352       .  A
C708       C1241   1.465       .  S
C709       C1225   1.464       .  S
N710        N716   1.315   1_565  A
N710        N711   1.322       .  A
N710       Mn740   2.210   1_565  S
N711        C719   1.354       .  A
N712        N713   1.319   1_545  A
N712        N714   1.316   1_545  A
N712       Mn718   2.196       .  S
N713        C720   1.352       .  A
N714        N715   1.322       .  A
N714       Mn740   2.210   1_565  S
N715        C720   1.353       .  A
N716        N717   1.320   1_545  A
N716       Mn718   2.196       .  S
N717        C719   1.352       .  A
Mn718      Cl742   2.548       .  S
C719       C1353   1.470       .  S
C720       C1366   1.469       .  S
N721        N722   1.322       .  A
N721        N727   1.316       .  A
N721       Mn729   2.212       .  S
N722        C730   1.354       .  A
N723        N725   1.317       .  A
N723        N724   1.318       .  A
N723       Mn741   2.192       .  S
N724        C731   1.350       .  A
N725        N726   1.323       .  A
N725       Mn729   2.220       .  S
N726        C731   1.355       .  A
N727        N728   1.320       .  A
N727       Mn741   2.195       .  S
N728        C730   1.351       .  A
Mn729      Cl742   2.551       .  S
C730       C1257   1.470       .  S
C731       C1270   1.468       .  S
N732        N733   1.318   1_545  A
N732        N738   1.315       .  A
N732       Mn740   2.191       .  S
N733        C743   1.350   1_565  A
N734        N735   1.322       .  A
N734        N736   1.316       .  A
N734       Mn741   2.205       .  S
N735        C744   1.353       .  A
N736        N737   1.317   1_545  A
N736       Mn740   2.195       .  S
N737        C744   1.351   1_565  A
N738        N739   1.323       .  A
N738       Mn741   2.210       .  S
N739        C743   1.354       .  A
Mn740      Cl742   2.545       .  S
Mn741      Cl742   2.548       .  S
C743       C1318   1.468   1_545  S
C744       C1302   1.465       .  S
C745        N750   1.361       .  A
C745       C1209   1.479       .  S
N746        C747   1.360       .  A
C747        N748   1.355       .  A
C747       C1273   1.469       .  S
C749        N750   1.359       .  A
C749       C1254   1.468       .  S
C751        N756   1.358       .  A
N752        C753   1.354       .  A
C753        N754   1.359       .  A
C753       C1238   1.467       .  S
C755        N756   1.360       .  A
C755       C1222   1.471       .  S
N757        N758   1.319       .  A
N757        N763   1.316   1_655  A
N757       Mn786   2.198   1_655  S
N758        C765   1.351       .  A
N759        N761   1.316   1_455  A
N759        N760   1.319   1_455  A
N759       Mn775   2.194       .  S
N760        C766   1.350       .  A
N761        N762   1.323       .  A
N761       Mn786   2.213   1_655  S
N762        C766   1.354       .  A
N763        N764   1.319   1_455  A
N763       Mn775   2.195       .  S
N764        C765   1.351       .  A
C765       C1081   1.461       .  S
C766       C1062   1.468       .  S
N767        N773   1.316       .  A
N767        N768   1.318       .  A
N767       Mn797   2.199       .  S
N768        C776   1.350       .  A
N769        N770   1.323       .  A
N769        N771   1.316       .  A
N769       Mn775   2.208       .  S
N770        C777   1.354       .  A
N771        N772   1.317       .  A
N771       Mn797   2.189       .  S
N772        C777   1.349       .  A
N773        N774   1.324       .  A
N773       Mn775   2.211       .  S
N774        C776   1.355       .  A
Mn775      Cl799   2.555       .  S
C776       C1158   1.470       .  S
C777       C1177   1.464       .  S
N778        N779   1.318       .  A
N778        N784   1.316       .  A
N778       Mn786   2.192       .  S
N779        C787   1.351       .  A
N780        N782   1.316       .  A
N780        N781   1.324       .  A
N780       Mn798   2.215       .  S
N781        C788   1.355       .  A
N782        N783   1.319       .  A
N782       Mn786   2.197       .  S
N783        C788   1.351       .  A
N784        N785   1.323       .  A
N784       Mn798   2.209       .  S
N785        C787   1.353       .  A
Mn786      Cl799   2.542       .  S
C787       C1094   1.466       .  S
C788       C1110   1.471       .  S
N789        N790   1.323       .  A
N789        N795   1.316       .  A
N789       Mn797   2.221       .  S
N790        C800   1.355       .  A
N791        N792   1.318       .  A
N791        N793   1.315       .  A
N791       Mn798   2.195       .  S
N792        C801   1.351       .  A
N793        N794   1.321       .  A
N793       Mn797   2.200       .  S
N794        C801   1.352       .  A
N795        N796   1.320       .  A
N795       Mn798   2.195       .  S
N796        C800   1.351       .  A
Mn797      Cl799   2.539       .  S
Mn798      Cl799   2.554       .  S
C800       C1142   1.471       .  S
C801       C1129   1.463       .  S
C802        N803   1.362       .  A
C802       C1049   1.476   1_556  S
N803        C804   1.362       .  A
C804        N805   1.359       .  A
C804       C1145   1.473       .  S
C806        N807   1.355       .  A
C806       C1126   1.468       .  S
C808        N809   1.360   1_554  A
C808       C1193   1.473       .  S
N809        C810   1.361       .  A
C810        N811   1.361       .  A
C810       C1113   1.473       .  S
C812        N813   1.355       .  A
C812       C1097   1.467       .  S
C814        N819   1.357       .  A
C814       C1033   1.475       .  S
N815        C816   1.362       .  A
C816       C1065   1.469       .  S
N817        C818   1.354       .  A
C818        N819   1.355       .  A
C818       C1078   1.464       .  S
C820        N821   1.356       .  A
C820       C1286   1.475       .  S
N821        C822   1.357       .  A
C822        N823   1.356       .  A
C822       C1174   1.468       .  S
C824        N825   1.362       .  A
C824       C1161   1.472       .  S
N826        N827   1.324       .  A
N826        N832   1.316       .  A
N826       Mn855   2.218       .  S
N827        C834   1.356       .  A
N828        N830   1.317       .  A
N828        N829   1.320       .  A
N828       Mn844   2.204       .  S
N829        C835   1.351       .  A
N830        N831   1.324       .  A
N830       Mn855   2.221       .  S
N831        C835   1.356       .  A
N832        N833   1.318       .  A
N832       Mn844   2.192       .  S
N833        C834   1.350       .  A
C834       C1014   1.471       .  S
C835        C998   1.475       .  S
N836        N842   1.316       .  A
N836        N837   1.323       .  A
N836       Mn866   2.211       .  S
N837        C845   1.354       .  A
N838        N839   1.318       .  A
N838        N840   1.316       .  A
N838       Mn844   2.200       .  S
N839        C846   1.351       .  A
N840        N841   1.323       .  A
N840       Mn866   2.209       .  S
N841        C846   1.353       .  A
N842        N843   1.318       .  A
N842       Mn844   2.192       .  S
N843        C845   1.350       .  A
Mn844      Cl868   2.549       .  S
C845        C966   1.466       .  S
C846        C982   1.468       .  S
N847        N848   1.323       .  A
N847        N853   1.317       .  A
N847       Mn855   2.213       .  S
N848        C856   1.354       .  A
N849        N851   1.316       .  A
N849        N850   1.320       .  A
N849       Mn867   2.193       .  S
N850        C857   1.351       .  A
N851        N852   1.321       .  A
N851       Mn855   2.217       .  S
N852        C857   1.354       .  A
N853        N854   1.318       .  A
N853       Mn867   2.192       .  S
N854        C856   1.349       .  A
Mn855      Cl868   2.549       .  S
C856        C905   1.464       .  S
C857        C918   1.470       .  S
N858        N859   1.323       .  A
N858        N864   1.315       .  A
N858       Mn866   2.209       .  S
N859        C869   1.354       .  A
N860        N861   1.320       .  A
N860        N862   1.316       .  A
N860       Mn867   2.198       .  S
N861        C870   1.351       .  A
N862        N863   1.322       .  A
N862       Mn866   2.210       .  S
N863        C870   1.353       .  A
N864        N865   1.316       .  A
N864       Mn867   2.187       .  S
N865        C869   1.349       .  A
Mn866      Cl868   2.548       .  S
Mn867      Cl868   2.550       .  S
C869        C953   1.464       .  S
C870        C937   1.467       .  S
C871        N872   1.361       .  A
C871       C1206   1.481       .  S
N872        C873   1.359       .  A
C873        N874   1.356       .  A
C873       C1017   1.471       .  S
C875        N876   1.362       .  A
C875       C1001   1.474       .  S
C877        N882   1.362       .  A
C877       C1046   1.476       .  S
N878        C879   1.359       .  A
C879        C902   1.471       .  S
N880        C881   1.356       .  A
C881        N882   1.358       .  A
C881        C921   1.468       .  S
C883        N884   1.358       .  A
C883       C1030   1.475       .  S
N884        C885   1.357       .  A
C885        N886   1.357       .  A
C885        C985   1.471       .  S
C887        N888   1.361       .  A
C887        C969   1.472       .  S
C889        N890   1.358       .  A
C889       C1337   1.473       .  S
N890        C891   1.358       .  A
C891        N892   1.355       .  A
C891        C950   1.468       .  S
C893        N894   1.359       .  A
C893        C934   1.470       .  S
C895        S901   1.705       .  A
C895        C900   1.387       .  A
C895        C896   1.402       .  A
C896        C897   1.402       .  A
C896        H907   1.083       .  S
C897        C906   1.372       .  A
C897        C898   1.388       .  A
C898        S904   1.704       .  A
C898        C899   1.401       .  A
C899        C900   1.401       .  A
C899        H908   1.083       .  S
C900        C903   1.371       .  A
S901        C902   1.724       .  A
C902        C903   1.386       .  A
C903        H909   1.083       .  S
S904        C905   1.720       .  A
C905        C906   1.383       .  A
C906        H910   1.083       .  S
C911        S917   1.705       .  A
C911        C916   1.387       .  A
C911        C912   1.399       .  A
C912        C913   1.400       .  A
C912        H923   1.083       .  S
C913        C922   1.367       .  A
C913        C914   1.387       .  A
C914        S920   1.712       .  A
C914        C915   1.404       .  A
C915        C916   1.405       .  A
C915        H924   1.083       .  S
C916        C919   1.372       .  A
S917        C918   1.719       .  A
C918        C919   1.388       .  A
C919        H925   1.083       .  S
S920        C921   1.723       .  A
C921        C922   1.383       .  A
C922        H926   1.083       .  S
C927        S933   1.709       .  A
C927        C932   1.387       .  A
C927        C928   1.402       .  A
C928        C929   1.403       .  A
C928        H939   1.083       .  S
C929        C938   1.369       .  A
C929        C930   1.387       .  A
C930        S936   1.708       .  A
C930        C931   1.400       .  A
C931        C932   1.401       .  A
C931        H940   1.083       .  S
C932        C935   1.368       .  A
S933        C934   1.723       .  A
C934        C935   1.385       .  A
C935        H941   1.083       .  S
S936        C937   1.720       .  A
C937        C938   1.386       .  A
C938        H942   1.083       .  S
C943        S949   1.709       .  A
C943        C948   1.387       .  A
C943        C944   1.404       .  A
C944        C945   1.404       .  A
C944        H955   1.083       .  S
C945        C954   1.373       .  A
C945        C946   1.388       .  A
C946        S952   1.700       .  A
C946        C947   1.397       .  A
C947        C948   1.397       .  A
C947        H956   1.083       .  S
C948        C951   1.366       .  A
S949        C950   1.724       .  A
C950        C951   1.383       .  A
C951        H957   1.083       .  S
S952        C953   1.719       .  A
C953        C954   1.386       .  A
C954        H958   1.083       .  S
C959        S965   1.710       .  A
C959        C964   1.387       .  A
C959        C960   1.402       .  A
C960        C961   1.403       .  A
C960        H971   1.083       .  S
C961        C970   1.370       .  A
C961        C962   1.387       .  A
C962        S968   1.708       .  A
C962        C963   1.401       .  A
C963        C964   1.402       .  A
C963        H972   1.083       .  S
C964        C967   1.368       .  A
S965        C966   1.721       .  A
C966        C967   1.385       .  A
C967        H973   1.083       .  S
S968        C969   1.723       .  A
C969        C970   1.387       .  A
C970        H974   1.083       .  S
C975        S981   1.714       .  A
C975        C980   1.387       .  A
C975        C976   1.405       .  A
C976        C977   1.406       .  A
C976        H987   1.083       .  S
C977        C986   1.373       .  A
C977        C978   1.387       .  A
C978        S984   1.704       .  A
C978        C979   1.398       .  A
C979        C980   1.399       .  A
C979        H988   1.083       .  S
C980        C983   1.366       .  A
S981        C982   1.723       .  A
C982        C983   1.382       .  A
C983        H989   1.083       .  S
S984        C985   1.720       .  A
C985        C986   1.389       .  A
C986        H990   1.083       .  S
C991        S997   1.707       .  A
C991        C996   1.387       .  A
C991        C992   1.404       .  A
C992        C993   1.403       .  A
C992       H1003   1.083       .  S
C993       C1002   1.375       .  A
C993        C994   1.387       .  A
C994       S1000   1.708       .  A
C994        C995   1.404       .  A
C995        C996   1.404       .  A
C995       H1004   1.083       .  S
C996        C999   1.376       .  A
S997        C998   1.724       .  A
C998        C999   1.387       .  A
C999       H1005   1.083       .  S
S1000      C1001   1.724       .  A
C1001      C1002   1.387       .  A
C1002      H1006   1.083       .  S
C1007      S1013   1.703       .  A
C1007      C1012   1.388       .  A
C1007      C1008   1.400       .  A
C1008      C1009   1.400       .  A
C1008      H1019   1.083       .  S
C1009      C1018   1.370       .  A
C1009      C1010   1.387       .  A
C1010      S1016   1.710       .  A
C1010      C1011   1.405       .  A
C1011      C1012   1.405       .  A
C1011      H1020   1.083       .  S
C1012      C1015   1.376       .  A
S1013      C1014   1.721       .  A
C1014      C1015   1.387       .  A
C1015      H1021   1.083       .  S
S1016      C1017   1.725       .  A
C1017      C1018   1.384       .  A
C1018      H1022   1.083       .  S
C1023      C1028   1.387   1_554  A
C1023      C1024   1.402       .  A
C1024      C1025   1.402       .  A
C1025      C1026   1.387   1_554  A
C1026      S1032   1.705       .  A
C1026      C1027   1.402       .  A
C1027      C1028   1.402       .  A
C1027      H1036   1.083       .  S
C1028      C1031   1.373       .  A
S1029      C1030   1.724       .  A
C1031      H1037   1.083       .  S
S1032      C1033   1.725       .  A
C1034      H1038   1.083       .  S
C1039      S1045   1.708       .  A
C1039      C1044   1.386   1_556  A
C1039      C1040   1.404       .  A
C1040      C1041   1.404       .  A
C1040      H1051   1.083       .  S
C1041      C1050   1.374       .  A
C1041      C1042   1.387   1_556  A
C1042      C1043   1.401       .  A
C1043      C1044   1.401       .  A
C1046      C1047   1.387       .  A
C1047      H1053   1.083       .  S
C1049      C1050   1.388   1_554  A
C1050      H1054   1.083       .  S
C1055      S1061   1.705       .  A
C1055      C1060   1.388       .  A
C1055      C1056   1.402       .  A
C1056      C1057   1.402       .  A
C1056      H1067   1.083       .  S
C1057      C1066   1.372       .  A
C1057      C1058   1.388       .  A
C1058      S1064   1.705       .  A
C1058      C1059   1.402       .  A
C1059      C1060   1.402       .  A
C1059      H1068   1.083       .  S
C1060      C1063   1.372       .  A
S1061      C1062   1.722       .  A
C1062      C1063   1.384       .  A
C1063      H1069   1.083       .  S
S1064      C1065   1.723       .  A
C1065      C1066   1.385       .  A
C1066      H1070   1.083       .  S
C1071      S1077   1.704       .  A
C1071      C1076   1.388       .  A
C1071      C1072   1.399       .  A
C1072      C1073   1.400       .  A
C1072      H1083   1.083       .  S
C1073      C1082   1.366       .  A
C1073      C1074   1.388       .  A
C1074      S1080   1.706       .  A
C1074      C1075   1.400       .  A
C1075      C1076   1.401       .  A
C1075      H1084   1.083       .  S
C1076      C1079   1.368       .  A
S1077      C1078   1.721       .  A
C1078      C1079   1.384       .  A
C1079      H1085   1.083       .  S
S1080      C1081   1.720       .  A
C1081      C1082   1.382       .  A
C1082      H1086   1.083       .  S
C1087      S1093   1.713       .  A
C1087      C1092   1.387   1_455  A
C1087      C1088   1.405       .  A
C1088      C1089   1.406   1_455  A
C1088      H1099   1.083       .  S
C1089      C1098   1.374       .  A
C1089      C1090   1.388       .  A
C1090      S1096   1.699       .  A
C1090      C1091   1.396       .  A
C1091      C1092   1.397       .  A
C1091      H1100   1.083       .  S
C1092      C1095   1.364       .  A
S1093      C1094   1.723       .  A
C1094      C1095   1.381   1_455  A
C1095      H1101   1.083       .  S
S1096      C1097   1.720       .  A
C1097      C1098   1.388       .  A
C1098      H1102   1.083       .  S
C1103      S1109   1.712       .  A
C1103      C1108   1.387   1_455  A
C1103      C1104   1.404       .  A
C1104      C1105   1.405   1_455  A
C1104      H1115   1.083       .  S
C1105      C1114   1.372       .  A
C1105      C1106   1.387       .  A
C1106      S1112   1.707       .  A
C1106      C1107   1.401       .  A
C1107      C1108   1.402       .  A
C1107      H1116   1.083       .  S
C1108      C1111   1.369       .  A
S1109      C1110   1.723       .  A
C1110      C1111   1.385   1_455  A
C1111      H1117   1.083       .  S
S1112      C1113   1.723       .  A
C1113      C1114   1.388       .  A
C1114      H1118   1.083       .  S
C1119      S1125   1.703       .  A
C1119      C1124   1.388       .  A
C1119      C1120   1.398       .  A
C1120      C1121   1.399       .  A
C1120      H1131   1.083       .  S
C1121      C1130   1.365       .  A
C1121      C1122   1.387       .  A
C1122      S1128   1.711       .  A
C1122      C1123   1.403       .  A
C1123      C1124   1.404       .  A
C1123      H1132   1.083       .  S
C1124      C1127   1.371       .  A
S1125      C1126   1.721       .  A
C1126      C1127   1.387       .  A
C1127      H1133   1.083       .  S
S1128      C1129   1.722       .  A
C1129      C1130   1.381       .  A
C1130      H1134   1.083       .  S
C1135      S1141   1.710       .  A
C1135      C1140   1.387       .  A
C1135      C1136   1.402       .  A
C1136      C1137   1.403       .  A
C1136      H1147   1.083       .  S
C1137      C1146   1.370       .  A
C1137      C1138   1.387       .  A
C1138      S1144   1.711       .  A
C1138      C1139   1.403       .  A
C1139      C1140   1.405       .  A
C1139      H1148   1.083       .  S
C1140      C1143   1.372       .  A
S1141      C1142   1.721       .  A
C1142      C1143   1.387       .  A
C1143      H1149   1.083       .  S
S1144      C1145   1.723       .  A
C1145      C1146   1.387       .  A
C1146      H1150   1.083       .  S
C1151      S1157   1.702       .  A
C1151      C1156   1.388       .  A
C1151      C1152   1.399       .  A
C1152      C1153   1.399       .  A
C1152      H1163   1.083       .  S
C1153      C1162   1.369       .  A
C1153      C1154   1.387       .  A
C1154      S1160   1.709       .  A
C1154      C1155   1.405       .  A
C1155      C1156   1.405       .  A
C1155      H1164   1.083       .  S
C1156      C1159   1.376       .  A
S1157      C1158   1.720       .  A
C1158      C1159   1.388       .  A
C1159      H1165   1.083       .  S
S1160      C1161   1.726       .  A
C1161      C1162   1.384       .  A
C1162      H1166   1.083       .  S
C1167      S1173   1.710       .  A
C1167      C1172   1.387       .  A
C1167      C1168   1.404       .  A
C1168      C1169   1.404       .  A
C1168      H1179   1.083       .  S
C1169      C1178   1.373       .  A
C1169      C1170   1.388       .  A
C1170      S1176   1.700       .  A
C1170      C1171   1.396       .  A
C1171      C1172   1.397       .  A
C1171      H1180   1.083       .  S
C1172      C1175   1.365       .  A
S1173      C1174   1.724       .  A
C1174      C1175   1.383       .  A
C1175      H1181   1.084       .  S
S1176      C1177   1.719       .  A
C1177      C1178   1.386       .  A
C1178      H1182   1.083       .  S
C1183      S1189   1.702       .  A
C1183      C1188   1.387   1_556  A
C1183      C1184   1.400       .  A
C1184      C1185   1.400       .  A
C1184      H1195   1.083       .  S
C1185      C1194   1.371       .  A
C1185      C1186   1.387   1_556  A
C1186      S1192   1.704       .  A
C1186      C1187   1.402       .  A
C1187      C1188   1.402       .  A
C1187      H1196   1.083       .  S
C1188      C1191   1.372       .  A
S1189      C1190   1.723       .  A
C1190      C1191   1.387   1_556  A
S1192      C1193   1.726       .  A
C1193      C1194   1.385   1_554  A
C1194      H1198   1.083       .  S
C1199      S1205   1.709       .  A
C1199      C1204   1.386       .  A
C1199      C1200   1.404       .  A
C1200      C1201   1.404       .  A
C1200      H1211   1.083       .  S
C1201      C1210   1.373       .  A
C1201      C1202   1.386       .  A
C1203      H1212   1.083       .  S
S1205      C1206   1.726       .  A
C1207      H1213   1.083       .  S
C1209      C1210   1.389       .  A
C1210      H1214   1.083       .  S
C1215      S1221   1.704       .  A
C1215      C1220   1.387       .  A
C1215      C1216   1.399       .  A
C1216      C1217   1.400       .  A
C1216      H1227   1.083       .  S
C1217      C1226   1.368       .  A
C1217      C1218   1.388       .  A
C1218      S1224   1.708       .  A
C1218      C1219   1.402       .  A
C1219      C1220   1.403       .  A
C1219      H1228   1.083       .  S
C1220      C1223   1.371       .  A
S1221      C1222   1.722       .  A
C1222      C1223   1.387       .  A
C1223      H1229   1.083       .  S
S1224      C1225   1.722       .  A
C1225      C1226   1.383       .  A
C1226      H1230   1.083       .  S
C1231      S1237   1.700       .  A
C1231      C1236   1.388       .  A
C1231      C1232   1.398       .  A
C1232      C1233   1.399       .  A
C1232      H1243   1.083       .  S
C1233      C1242   1.367       .  A
C1233      C1234   1.387       .  A
C1234      S1240   1.708       .  A
C1234      C1235   1.403       .  A
C1235      C1236   1.403       .  A
C1235      H1244   1.083       .  S
C1236      C1239   1.373       .  A
S1237      C1238   1.721       .  A
C1238      C1239   1.386       .  A
C1239      H1245   1.083       .  S
S1240      C1241   1.721       .  A
C1241      C1242   1.383       .  A
C1242      H1246   1.083       .  S
C1247      S1253   1.706       .  A
C1247      C1252   1.387       .  A
C1247      C1248   1.401       .  A
C1248      C1249   1.401       .  A
C1248      H1259   1.083       .  S
C1249      C1258   1.371       .  A
C1249      C1250   1.387       .  A
C1250      S1256   1.708       .  A
C1250      C1251   1.402       .  A
C1251      C1252   1.403       .  A
C1251      H1260   1.083       .  S
C1252      C1255   1.371       .  A
S1253      C1254   1.722       .  A
C1254      C1255   1.386       .  A
C1255      H1261   1.083       .  S
S1256      C1257   1.723       .  A
C1257      C1258   1.384       .  A
C1258      H1262   1.083       .  S
C1263      S1269   1.703       .  A
C1263      C1268   1.388       .  A
C1263      C1264   1.400       .  A
C1264      C1265   1.401       .  A
C1264      H1275   1.083       .  S
C1265      C1274   1.371       .  A
C1265      C1266   1.387       .  A
C1266      S1272   1.708       .  A
C1266      C1267   1.403       .  A
C1267      C1268   1.403       .  A
C1267      H1276   1.083       .  S
C1268      C1271   1.373       .  A
S1269      C1270   1.721       .  A
C1270      C1271   1.385       .  A
C1271      H1277   1.083       .  S
S1272      C1273   1.724       .  A
C1273      C1274   1.384       .  A
C1274      H1278   1.083       .  S
C1279      S1285   1.706       .  A
C1279      C1284   1.387       .  A
C1279      C1280   1.404       .  A
C1280      C1281   1.403       .  A
C1280      H1291   1.083       .  S
C1281      C1290   1.374       .  A
C1281      C1282   1.387       .  A
C1282      S1288   1.702       .  A
C1282      C1283   1.401       .  A
C1283      C1284   1.401       .  A
C1283      H1292   1.083       .  S
C1284      C1287   1.372       .  A
C1287      H1293   1.083       .  S
S1288      C1289   1.724       .  A
C1289      C1290   1.388       .  A
C1295      S1301   1.712       .  A
C1295      C1300   1.387   1_545  A
C1295      C1296   1.404       .  A
C1296      C1297   1.405   1_545  A
C1296      H1307   1.083       .  S
C1297      C1306   1.373       .  A
C1297      C1298   1.388       .  A
C1298      S1304   1.700       .  A
C1298      C1299   1.396       .  A
C1299      C1300   1.397       .  A
C1299      H1308   1.083       .  S
C1300      C1303   1.363       .  A
S1301      C1302   1.723       .  A
C1302      C1303   1.381   1_545  A
C1303      H1309   1.083       .  S
S1304      C1305   1.720       .  A
C1305      C1306   1.387       .  A
C1306      H1310   1.083       .  S
C1311      S1317   1.702       .  A
C1311      C1316   1.388       .  A
C1311      C1312   1.398       .  A
C1312      C1313   1.399       .  A
C1312      H1323   1.083       .  S
C1313      C1322   1.368       .  A
C1313      C1314   1.387       .  A
C1314      S1320   1.709       .  A
C1314      C1315   1.404   1_565  A
C1315      C1316   1.404   1_545  A
C1315      H1324   1.083       .  S
C1316      C1319   1.374   1_565  A
S1317      C1318   1.720       .  A
C1318      C1319   1.386   1_565  A
C1319      H1325   1.083       .  S
S1320      C1321   1.725       .  A
C1321      C1322   1.384       .  A
C1322      H1326   1.083       .  S
C1327      S1333   1.703       .  A
C1327      C1332   1.387   1_556  A
C1327      C1328   1.400       .  A
C1328      C1329   1.400       .  A
C1328      H1339   1.083       .  S
C1329      C1338   1.369       .  A
C1329      C1330   1.387   1_556  A
C1330      C1331   1.403       .  A
C1331      C1332   1.404       .  A
C1334      C1335   1.388       .  A
C1335      H1341   1.083       .  S
S1336      C1337   1.725       .  A
C1338      H1342   1.083       .  S
C1343      S1349   1.710       .  A
C1343      C1348   1.387       .  A
C1343      C1344   1.403       .  A
C1344      C1345   1.404       .  A
C1344      H1355   1.083       .  S
C1345      C1354   1.371       .  A
C1345      C1346   1.387       .  A
C1346      S1352   1.709       .  A
C1346      C1347   1.401       .  A
C1347      C1348   1.403       .  A
C1347      H1356   1.083       .  S
C1348      C1351   1.370       .  A
S1349      C1350   1.723       .  A
C1350      C1351   1.386       .  A
C1351      H1357   1.083       .  S
S1352      C1353   1.721       .  A
C1353      C1354   1.386       .  A
C1354      H1358   1.083       .  S
C1359      S1365   1.710       .  A
C1359      C1364   1.387       .  A
C1359      C1360   1.403       .  A
C1360      C1361   1.404       .  A
C1360      H1371   1.083       .  S
C1361      C1370   1.371       .  A
C1361      C1362   1.388       .  A
C1362      S1368   1.705       .  A
C1362      C1363   1.399       .  A
C1363      C1364   1.401       .  A
C1363      H1372   1.083       .  S
C1364      C1367   1.368       .  A
S1365      C1366   1.723       .  A
C1366      C1367   1.384       .  A
C1367      H1373   1.083       .  S
S1368      C1369   1.720       .  A
C1369      C1370   1.385       .  A
C1370      H1374   1.083       .  S
