geometry optimzed in LAMMPS
_audit_creation_date              2020-12-01 
_audit_creation_method            'lammps2cif' 
_symmetry_space_group_name_H-M    'P1' 
_symmetry_Int_Tables_number       1 
_symmetry_cell_setting            triclinic 
loop_ 
_symmetry_equiv_pos_as_xyz 
  x,y,z 
_cell_length_a                    41.22420625 
_cell_length_b                    38.12884777087906 
_cell_length_c                    40.61612174327041 
_cell_angle_alpha                 90.78645895366449 
_cell_angle_beta                  92.54656087122906 
_cell_angle_gamma                 94.59485509031487 
loop_ 
_atom_site_label 
_atom_site_type_symbol 
_atom_site_fract_x 
_atom_site_fract_y 
_atom_site_fract_z 
_atom_site_charge 
C1          C  0.40526341  0.35070500  0.34566672     0.84900
C2          C  0.42240961  0.37855208  0.36957419    -0.55300
C3          C  0.40299098  0.39574581  0.38978390     0.07800
C4          C  0.36559449  0.38425911  0.38291392     0.18800
C5          C  0.38374773  0.32644734  0.36936134    -0.56100
C6          C  0.36256054  0.34340936  0.38931032     0.07900
C7          C  0.37964764  0.37143176  0.32609623    -0.55600
C8          C  0.35850346  0.38933239  0.34441006     0.08500
H9          H  0.44874973  0.38367832  0.37103045     0.13000
H10         H  0.34964830  0.39896349  0.39847541    -0.01200
H11         H  0.38549464  0.29824611  0.37025843     0.13300
H12         H  0.37900317  0.37263125  0.29940787     0.13100
C13         C  0.14838523  0.11175350  0.16031590     0.84900
C14         C  0.12571551  0.13499252  0.17852064    -0.55300
C15         C  0.10481632  0.15382360  0.15940966     0.07800
C16         C  0.11106644  0.14872510  0.12099762     0.18800
C17         C  0.12443220  0.08932840  0.13610657    -0.56100
C18         C  0.10481255  0.10781711  0.11524394     0.07900
C19         C  0.16730292  0.13749931  0.13743283    -0.55600
C20         C  0.14929511  0.15704826  0.11586170     0.08500
H21         H  0.12494292  0.13450948  0.20519331     0.13000
H22         H  0.09527635  0.16386281  0.10462301    -0.01200
H23         H  0.12305037  0.06074991  0.13565243     0.13300
H24         H  0.19371222  0.13895620  0.13764307     0.13100
N25         N  0.04854250  0.52021343  0.44372364    -0.07700
N26         N  0.07338207  0.51771734  0.42476849    -0.59800
N27         N  0.49199448  0.07250675  0.45790766    -0.07400
N28         N  0.47437769  0.09916428  0.45279913    -0.62000
N29         N  0.02138650  0.08248082  0.47500708    -0.07000
N30         N  0.02414527  0.11690233  0.48004276    -0.59800
N31         N  0.02122564  0.50903896  0.42741324    -0.06700
N32         N  0.02680439  0.49886389  0.39733560    -0.62300
C33         C  0.05930703  0.50405914  0.39627565     0.94500
C34         C  0.99690958  0.12754117  0.46473609     0.94200
N35         N  0.41712300  0.01274274  0.49032392    -0.07900
N36         N  0.39735322  0.03391418  0.00412581    -0.60400
N37         N  0.45171185  0.46364850  0.43626463    -0.06000
N38         N  0.44157028  0.44846974  0.40761386    -0.61700
N39         N  0.43662195  0.44796491  0.46062026    -0.07900
N40         N  0.41573328  0.42179423  0.44856260    -0.60700
N41         N  0.42851095  0.02733728  0.46377135    -0.05700
N42         N  0.41217232  0.05374809  0.45475628    -0.61700
Mn43       Mn  0.47462815  0.01779523  0.44545533     1.18400
C44         C  0.38990738  0.05505971  0.47757424     0.96600
C45         C  0.41899753  0.42226989  0.41523877     0.97200
N46         N  0.05699053  0.06595970  0.04603599    -0.07900
N47         N  0.07883351  0.09150611  0.05753625    -0.64300
N48         N  0.06888649  0.48455573  0.04530349    -0.06700
N49         N  0.08499639  0.45804784  0.05474465    -0.64900
N50         N  0.07792164  0.50276569  0.51393489    -0.07400
N51         N  0.10053817  0.48440761  0.50158129    -0.64500
N52         N  0.04461272  0.04834632  0.07085449    -0.06300
N53         N  0.05844097  0.06118679  0.09923766    -0.65200
Mn54       Mn  0.05134980  0.04321596  0.49581215     1.10700
C55         C  0.07924426  0.08892773  0.09103460     0.97800
C56         C  0.10762381  0.45659717  0.03227680     0.97800
N57         N  0.47636728  0.42937546  0.03168005    -0.07500
N58         N  0.47517173  0.39503584  0.02593588    -0.62800
N59         N  0.47656066  0.00496747  0.08101347    -0.06800
N60         N  0.47170843  0.01399663  0.11159206    -0.59600
N61         N  0.44879535  0.99494036  0.06484029    -0.08100
N62         N  0.42438894  0.99706317  0.08453634    -0.62400
N63         N  0.50329561  0.43998812  0.04905094    -0.07100
N64         N  0.02109872  0.41525160  0.05629608    -0.59600
Mn65       Mn  0.44414983  0.46822437  0.01252667     1.20200
Mn66       Mn  0.02321169  0.49628351  0.06353136     1.10100
Cl67       Cl  0.49784359  0.00765020  0.50264241    -0.87600
C68         C  0.50343305  0.38567401  0.04033299     0.94800
C69         C  0.43930185  0.00897708  0.11327999     0.94600
N70         N  0.30156308  0.20407953  0.51629879    -0.07700
N71         N  0.31327101  0.17432964  0.50881628    -0.59800
N72         N  0.29773208  0.27109541  0.06649357    -0.07400
N73         N  0.30617551  0.28961685  0.09364534    -0.62000
N74         N  0.27949664  0.24252831  0.07416883    -0.07000
N75         N  0.27556171  0.24117442  0.10606346    -0.59800
N76         N  0.32116603  0.23096194  0.50705321    -0.06700
N77         N  0.34692467  0.21958344  0.49329205    -0.62300
C78         C  0.34103814  0.18428635  0.49454493     0.94500
C79         C  0.29200968  0.27073356  0.11805796     0.94200
N80         N  0.26783653  0.34816174  0.00581620    -0.07900
N81         N  0.26081216  0.37991813  0.01540603    -0.60400
N82         N  0.32038609  0.30081233  0.45960268    -0.06000
N83         N  0.34817648  0.30984619  0.44442381    -0.61700
N84         N  0.29556533  0.31005108  0.44119069    -0.07900
N85         N  0.30603366  0.32558400  0.41377824    -0.60700
N86         N  0.29272199  0.33819923  0.02335858    -0.05700
N87         N  0.30328201  0.36275930  0.04531322    -0.61700
Mn88       Mn  0.30966278  0.28582649  0.01458602     1.18400
C89         C  0.28331785  0.38888122  0.04021041     0.96600
C90         C  0.33919692  0.32498418  0.41506004     0.97200
N91         N  0.20947339  0.20123458  0.06309869    -0.07900
N92         N  0.20136546  0.18331862  0.08981374    -0.64300
N93         N  0.20789247  0.17531375  0.48334263    -0.06700
N94         N  0.19781244  0.14910149  0.46274315    -0.64900
N95         N  0.23254288  0.16681907  0.50210660    -0.07400
N96         N  0.23977129  0.13454594  0.49503479    -0.64500
N97         N  0.18317522  0.20933023  0.04629209    -0.06300
N98         N  0.15660847  0.19621527  0.06178068    -0.65200
Mn99       Mn  0.25796013  0.20375295  0.03895948     1.10700
C100        C  0.16818710  0.18027028  0.08979897     0.97800
C101        C  0.21778907  0.12350079  0.47045594     0.97800
N102        N  0.22564349  0.26776921  0.43024717    -0.07500
N103        N  0.23253004  0.26671815  0.39915394    -0.62800
N104        N  0.17985271  0.28284258  0.00209821    -0.06800
N105        N  0.15488290  0.29348853  0.01788206    -0.59600
N106        N  0.19882773  0.31035688  0.99290312    -0.08100
N107        N  0.18754847  0.33962230  0.00268571    -0.62400
N108        N  0.20569421  0.24045570  0.43783471    -0.07100
N109        N  0.19869582  0.22069262  0.41108952    -0.59600
Mn110      Mn  0.24560497  0.30882900  0.46339359     1.20200
Mn111      Mn  0.19097869  0.22813133  0.48951060     1.10100
Cl112      Cl  0.25117663  0.25726879  0.00351221    -0.87600
C113        C  0.21573815  0.23748464  0.38722084     0.94800
C114        C  0.16071473  0.32891847  0.01823912     0.94600
N115        N  0.44124830  0.25160966  0.20144994    -0.07700
N116        N  0.41078773  0.24170369  0.19164416    -0.59800
N117        N  0.50798945  0.29985094  0.18367139    -0.07400
N118        N  0.01760607  0.32040101  0.15619986    -0.62000
N119        N  0.50841803  0.26718459  0.17273344    -0.07000
N120        N  0.01701655  0.26433440  0.13951579    -0.59800
N121        N  0.44239350  0.28328313  0.21504288    -0.06700
N122        N  0.41354201  0.29530019  0.21509702    -0.62300
C123        C  0.39403613  0.26940927  0.20050546     0.94500
C124        C  0.02481876  0.29784082  0.13180873     0.94200
N125        N  0.04716343  0.33307768  0.27154180    -0.07900
N126        N  0.07898063  0.33909684  0.27008308    -0.60400
N127        N  0.46228620  0.32277964  0.28218518    -0.06000
N128        N  0.43430224  0.33625354  0.28973026    -0.61700
N129        N  0.47707846  0.31245519  0.30929282    -0.07900
N130        N  0.45930634  0.31871622  0.33536838    -0.60700
N131        N  0.03275551  0.34084632  0.24339704    -0.05700
N132        N  0.05482303  0.35164581  0.22231205    -0.61700
Mn133      Mn  0.48600170  0.31268625  0.23225998     1.18400
C134        C  0.08361094  0.35056266  0.23931563     0.96600
C135        C  0.43202086  0.33368288  0.32337501     0.97200
N136        N  0.03326152  0.19569736  0.18971773    -0.07900
N137        N  0.05007257  0.18603811  0.16381917    -0.64300
N138        N  0.48061373  0.17017101  0.25304099    -0.06700
N139        N  0.46028889  0.15577453  0.27397568    -0.64900
N140        N  0.46467699  0.18088346  0.22678341    -0.07400
N141        N  0.43304381  0.17467011  0.22987000    -0.64500
N142        N  0.04886510  0.18803046  0.21722435    -0.06300
N143        N  0.07605447  0.17321158  0.21067632    -0.65200
Mn144      Mn  0.48654613  0.22280022  0.19710822     1.10700
C145        C  0.07729376  0.17185302  0.17715963     0.97800
C146        C  0.43090057  0.15882091  0.25922415     0.97800
N147        N  0.00821564  0.24531270  0.32650258    -0.07500
N148        N  0.49578044  0.24190210  0.35940458    -0.62800
N149        N  0.07186371  0.23152510  0.28054912    -0.06800
N150        N  0.10071316  0.21956285  0.28104536    -0.59600
N151        N  0.07255836  0.26288922  0.29471816    -0.08100
N152        N  0.10270465  0.27246518  0.30568657    -0.62400
N153        N  0.00938847  0.21277883  0.31553330    -0.07100
N154        N  0.49700335  0.18649604  0.34083279    -0.59600
Mn155      Mn  0.02651918  0.29009343  0.30066523     1.20200
Mn156      Mn  0.02854181  0.20013097  0.26654351     1.10100
Cl157      Cl  0.50599931  0.25469023  0.25076596    -0.87600
C158        C  0.48999317  0.20782446  0.36609208     0.94800
C159        C  0.11974792  0.24500429  0.29674411     0.94600
N160        N  0.29054573  0.43322894  0.30418900    -0.07700
N161        N  0.30183987  0.40454230  0.31808026    -0.59800
N162        N  0.26923142  0.00570274  0.34077418    -0.07400
N163        N  0.26882692  0.02539259  0.36754159    -0.62000
N164        N  0.24465064  0.98168359  0.33905471    -0.07000
N165        N  0.22622080  0.98509398  0.36476194    -0.59800
N166        N  0.31401717  0.45888205  0.30505192    -0.06700
N167        N  0.34117237  0.44795194  0.31946152    -0.62300
C168        C  0.33386281  0.41365622  0.32755134     0.94500
C169        C  0.24224129  0.01215457  0.38265791     0.94200
N170        N  0.27518979  0.08662384  0.27105829    -0.07900
N171        N  0.28933067  0.11899055  0.27308362    -0.60400
N172        N  0.32856070  0.52579661  0.25524762    -0.06000
N173        N  0.35858779  0.51819641  0.24962237    -0.61700
N174        N  0.31635478  0.54258192  0.22994005    -0.07900
N175        N  0.33765671  0.54716032  0.20716489    -0.60700
N176        N  0.28343656  0.06987627  0.29816301    -0.05700
N177        N  0.29955877  0.09174121  0.31938554    -0.61700
Mn178      Mn  0.29929180  0.01568531  0.29914961     1.18400
C179        C  0.30598595  0.12122585  0.30270753     0.96600
C180        C  0.36377869  0.53241568  0.21977174     0.97200
N181        N  0.18826802  0.96419137  0.28588321    -0.07900
N182        N  0.16743267  0.96407615  0.30937374    -0.64300
N183        N  0.21922433  0.43540335  0.21925469    -0.06700
N184        N  0.20732383  0.41241733  0.19666687    -0.64900
N185        N  0.22882650  0.41917905  0.24614062    -0.07400
N186        N  0.22147726  0.38491343  0.24210959    -0.64500
N187        N  0.17656244  0.97977724  0.25951710    -0.06300
N188        N  0.14767145  0.99068934  0.26482309    -0.65200
Mn189      Mn  0.23767029  0.44843129  0.29396237     1.10700
C190        C  0.14245648  0.98022555  0.29578567     0.97800
C191        C  0.20768843  0.38089405  0.21105616     0.97800
N192        N  0.25987231  0.52466554  0.17759158    -0.07500
N193        N  0.27766165  0.52312427  0.15128654    -0.62800
N194        N  0.18984784  0.04563410  0.20982882    -0.06800
N195        N  0.16377738  0.05529627  0.19246241    -0.59600
N196        N  0.21255412  0.07205772  0.21232040    -0.08100
N197        N  0.20178182  0.09982246  0.19640989    -0.62400
N198        N  0.23591742  0.49989727  0.17569812    -0.07100
N199        N  0.23611707  0.48149840  0.14812074    -0.59600
Mn200      Mn  0.26542425  0.05814254  0.22317232     1.20200
Mn201      Mn  0.20517041  0.48996921  0.21675498     1.10100
Cl202      Cl  0.25192814  0.00295534  0.25784703    -0.87600
C203        C  0.26187841  0.49651333  0.13277477     0.93400
C204        C  0.17072651  0.08964062  0.18437225     0.94600
C205        C  0.34789437  0.16890869  0.29160855    -0.10700
C206        C  0.34044656  0.13487221  0.30293890     0.05500
C207        C  0.36574992  0.11131880  0.30535126    -0.04500
C208        C  0.39523173  0.12026055  0.29131829    -0.09000
C209        C  0.40087911  0.15253802  0.27644094     0.04600
C210        C  0.37849638  0.17824331  0.27951248    -0.04000
Br211      Br  0.38960959  0.22666370  0.27060872    -0.03700
H212        H  0.32954001  0.18770913  0.29096999     0.08500
H213        H  0.41350000  0.10132305  0.29094424     0.06500
Br214      Br  0.36282550  0.06512885  0.32431142    -0.04100
C215        C  0.15426650  0.36677427  0.18300186    -0.10700
C216        C  0.17947533  0.35497632  0.20352675     0.05500
C217        C  0.17074593  0.33073982  0.22770298    -0.04500
C218        C  0.13904224  0.32898003  0.23876687    -0.09000
C219        C  0.11533762  0.34912752  0.22381881     0.04600
C220        C  0.12254729  0.36590183  0.19393698    -0.04000
Br221      Br  0.09235969  0.39276278  0.16975870    -0.03700
H222        H  0.16018204  0.38298199  0.16194302     0.08500
H223        H  0.13326623  0.31259912  0.25969284     0.06500
Br224      Br  0.20268080  0.30243781  0.24679659    -0.04100
C225        C  0.26325249  0.44798420  0.05225032    -0.10700
C226        C  0.28385276  0.42153155  0.06121220     0.05500
C227        C  0.30270570  0.42602411  0.09133223    -0.04500
C228        C  0.29822772  0.45411716  0.11273766    -0.09000
C229        C  0.27534892  0.47819671  0.10505473     0.04600
C230        C  0.25897898  0.47611313  0.07391954    -0.04000
Br231      Br  0.22949521  0.51043866  0.06099629    -0.03700
H232        H  0.24930656  0.44604141  0.02899967     0.08500
H233        H  0.31067694  0.45537020  0.13686292     0.06500
Br234      Br  0.33286536  0.39367307  0.10719928    -0.04100
C235        C  0.20112478  0.04797139  0.40695322    -0.10700
C236        C  0.23004202  0.03116040  0.41098418     0.05500
C237        C  0.25140232  0.04089361  0.43813545    -0.04500
C238        C  0.24575618  0.06961738  0.45825180    -0.09000
C239        C  0.21877533  0.08933524  0.45208778     0.04600
C240        C  0.19518316  0.07675732  0.42728070    -0.04000
Br241      Br  0.15491465  0.09780705  0.41899963    -0.03700
H242        H  0.18422296  0.04037687  0.38645278     0.08500
H243        H  0.26367800  0.07755617  0.47786771     0.06500
Br244      Br  0.28954043  0.01647438  0.44778783    -0.04100
C245        C  0.18699244  0.20324598  0.34250766    -0.10700
C246        C  0.20608776  0.23377865  0.35226306     0.05500
C247        C  0.20316341  0.26477485  0.33408407    -0.04500
C248        C  0.17464029  0.26799607  0.31540394    -0.09000
C249        C  0.15219780  0.23900464  0.31001602     0.04600
C250        C  0.16007447  0.20538914  0.32100590    -0.04000
Br251      Br  0.13289720  0.16234902  0.31341361    -0.03700
H252        H  0.19012325  0.17880648  0.35520234     0.08500
H253        H  0.16933423  0.29359597  0.30626682     0.06500
Br254      Br  0.23444421  0.30512283  0.33711501    -0.04100
C255        C  0.32128982  0.30687134  0.16094261    -0.10700
C256        C  0.30299435  0.27534636  0.15278455     0.05500
C257        C  0.30801960  0.24539984  0.17182156    -0.04500
C258        C  0.33752543  0.24422057  0.18972912    -0.09000
C259        C  0.36005010  0.27370540  0.19096220     0.04600
C260        C  0.35029829  0.30635141  0.17957185    -0.04000
Br261      Br  0.37732868  0.34989402  0.18237919    -0.03700
H262        H  0.31610036  0.33068590  0.14824115     0.08500
H263        H  0.34363883  0.21984474  0.20093652     0.06500
Br264      Br  0.27765810  0.20444902  0.17146755    -0.04100
C265        C  0.35469887  0.13914975  0.45708569    -0.10700
C266        C  0.36266544  0.15828339  0.48626779     0.05500
C267        C  0.37899487  0.14292649  0.51270880    -0.04500
C268        C  0.38475981  0.10759308  0.51083107    -0.09000
C269        C  0.37545562  0.08788322  0.48218527     0.04600
C270        C  0.36149451  0.10416796  0.45468236    -0.04000
Br271      Br  0.35116269  0.07971008  0.41345018    -0.03700
H272        H  0.34114978  0.15066695  0.43707233     0.08500
H273        H  0.39764378  0.09589098  0.53125115     0.06500
Br274      Br  0.39117358  0.16896880  0.55273885    -0.04100
C275        C  0.10973692  0.40065610  0.00357441    -0.10700
C276        C  0.12284473  0.42412123  0.02839048     0.05500
C277        C  0.14240125  0.41216152  0.05442930    -0.04500
C278        C  0.15090573  0.37760638  0.05381070    -0.09000
C279        C  0.13913190  0.35459662  0.02805370     0.04600
C280        C  0.11733796  0.36578741  0.00363886    -0.04000
Br281      Br  0.09992021  0.33493951  0.96834417    -0.03700
H282        H  0.09275774  0.40916979  0.98477473     0.08500
H283        H  0.16855626  0.36938994  0.07213381     0.06500
Br284      Br  0.15866346  0.44247278  0.09064498    -0.04100
C285        C  0.10062756  0.02556307  0.36030864    -0.10700
C286        C  0.07657155  0.49956063  0.36650501     0.05500
C287        C  0.07073966  0.46877505  0.34694719    -0.04500
C288        C  0.09021941  0.46385389  0.32054534    -0.09000
C289        C  0.11607854  0.98990819  0.31511015     0.04600
C290        C  0.11927858  0.02187158  0.33297430    -0.04000
Br291      Br  0.15073656  0.05959771  0.32260853    -0.03700
H292        H  0.10371694  0.04971948  0.37485220     0.08500
H293        H  0.08777436  0.43895219  0.30709478     0.06500
Br294      Br  0.03982730  0.43070923  0.35763682    -0.04100
C295        C  0.39361271  0.49169582  0.18854758    -0.10700
C296        C  0.39040403  0.52633248  0.19899100     0.05500
C297        C  0.40231152  0.05683029  0.18020661    -0.04500
C298        C  0.41938345  0.04967348  0.15259541    -0.09000
C299        C  0.42295227  0.01494987  0.14328036     0.04600
C300        C  0.40878394  0.48528331  0.15932513    -0.04000
Br301      Br  0.41111984  0.43749062  0.14497076    -0.03700
H302        H  0.38189367  0.46983296  0.20146400     0.08500
H303        H  0.42841107  0.07112523  0.13739104     0.06500
Br304      Br  0.39359339  0.10481665  0.18838601    -0.04100
C305        C  0.99405980  0.30403168  0.08031588    -0.10700
C306        C  0.02433918  0.30783127  0.09756027     0.05500
C307        C  0.05063616  0.32705352  0.08414358    -0.04500
C308        C  0.54460629  0.34716914  0.05849978    -0.09000
C309        C  0.51194748  0.34996620  0.04754681     0.04600
C310        C  0.48771828  0.32522032  0.05816136    -0.04000
Br311      Br  0.44340413  0.32226747  0.04117367    -0.03700
H312        H  0.97417783  0.28741186  0.08979960     0.08500
H313        H  0.56386803  0.36465173  0.04912736     0.06500
Br314      Br  0.09392517  0.32714292  0.10346796    -0.04100
C315        C  0.01830549  0.20516844  0.41932058    -0.10700
C316        C  0.48613850  0.19642314  0.39947466     0.05500
C317        C  0.45682219  0.17973631  0.40922623    -0.04500
C318        C  0.45586683  0.16503462  0.44036303    -0.09000
C319        C  0.99166519  0.16360163  0.45528603     0.04600
C320        C  0.01877244  0.18686455  0.44872216    -0.04000
Br321      Br  0.05838592  0.19046768  0.47571872    -0.03700
H322        H  0.04015887  0.22026048  0.41215086     0.08500
H323        H  0.43433401  0.14883039  0.44635597     0.06500
Br324      Br  0.41916711  0.17294807  0.37962143    -0.04100
C325        C  0.40142427  0.35157287  0.84432697     0.84900
C326        C  0.41935120  0.37897100  0.86804793    -0.55300
C327        C  0.40071998  0.39631159  0.88884783     0.07800
C328        C  0.36298280  0.38568902  0.88248591     0.18800
C329        C  0.38002378  0.32754901  0.86838210    -0.56100
C330        C  0.35942553  0.34484525  0.88880110     0.07900
C331        C  0.37576803  0.37271969  0.82528428    -0.55600
C332        C  0.35512151  0.39088150  0.84398592     0.08500
H333        H  0.44575453  0.38338705  0.86921009     0.13000
H334        H  0.34760901  0.40062575  0.89847462    -0.01200
H335        H  0.38149779  0.29930457  0.86924527     0.13300
H336        H  0.37456456  0.37376402  0.79858478     0.13100
C337        C  0.14600652  0.11385470  0.65928467     0.84900
C338        C  0.12361664  0.13675624  0.67853801    -0.55300
C339        C  0.10247671  0.15627653  0.66033199     0.07800
C340        C  0.10818873  0.15218675  0.62158940     0.18800
C341        C  0.12167854  0.09230406  0.63499936    -0.56100
C342        C  0.10182652  0.11147465  0.61512520     0.07900
C343        C  0.16457260  0.14032015  0.63645217    -0.55600
C344        C  0.14627104  0.16045435  0.61547168     0.08500
H345        H  0.12309157  0.13540602  0.70518709     0.13000
H346        H  0.09208663  0.16764397  0.60585461    -0.01200
H347        H  0.12018665  0.06373321  0.63375147     0.13300
H348        H  0.19093716  0.14153355  0.63598479     0.13100
N349        N  0.05171535  0.51543752  0.94804301    -0.07700
N350        N  0.07614031  0.50977365  0.92925557    -0.59800
N351        N  0.49623051  0.07114954  0.96049322    -0.07400
N352        N  0.47999563  0.09829158  0.95295691    -0.62000
N353        N  0.02113266  0.07883375  0.97586418    -0.07000
N354        N  0.02397709  0.11308016  0.98154139    -0.59800
N355        N  0.02385738  0.50506054  0.93226928    -0.06700
N356        N  0.02858597  0.49219846  0.90293026    -0.62300
C357        C  0.06108148  0.49491330  0.90165137     0.94500
C358        C  0.99642320  0.12400162  0.96729306     0.94200
N359        N  0.42024865  0.01470357  0.99353547    -0.07900
N360        N  0.39294270  0.03006246  0.50081909    -0.60400
N361        N  0.45266167  0.46072394  0.93648710    -0.06000
N362        N  0.44068806  0.44759021  0.90758546    -0.61700
N363        N  0.43877574  0.44359500  0.96075613    -0.07900
N364        N  0.41682682  0.41857322  0.94835360    -0.60700
N365        N  0.43188841  0.02815417  0.96656297    -0.05700
N366        N  0.41695452  0.05548738  0.95734080    -0.61700
Mn367      Mn  0.47762266  0.01666249  0.94879028     1.18400
C368        C  0.39532946  0.05869232  0.98046884     0.96600
C369        C  0.41810538  0.42129095  0.91491608     0.97200
N370        N  0.05476402  0.06949957  0.54627184    -0.07900
N371        N  0.07650581  0.09509856  0.55766501    -0.64300
N372        N  0.06685599  0.48755753  0.54036525    -0.06700
N373        N  0.08194045  0.45950626  0.54725701    -0.64900
N374        N  0.08073354  0.49896665  0.01887472    -0.07400
N375        N  0.10501200  0.48146726  0.00886351    -0.64500
N376        N  0.04175201  0.05249482  0.57106545    -0.06300
N377        N  0.05495138  0.06588230  0.59946099    -0.65200
Mn378      Mn  0.05239027  0.04017206  0.99479127     1.10700
C379        C  0.07607276  0.09325344  0.59111330     0.97800
C380        C  0.10307817  0.45783265  0.52329740     0.97800
N381        N  0.47070860  0.43571123  0.53236920    -0.07500
N382        N  0.46937194  0.40172115  0.52497941    -0.62800
N383        N  0.47410155  0.00752785  0.57710118    -0.06800
N384        N  0.46878223  0.01914564  0.60680613    -0.59600
N385        N  0.44653437  0.99636911  0.56111386    -0.08100
N386        N  0.42181828  0.00030924  0.58002775    -0.62400
N387        N  0.49763706  0.44546339  0.55006178    -0.07100
N388        N  0.02070237  0.41678946  0.55271780    -0.59600
Mn389      Mn  0.44052128  0.47491356  0.51145610     1.20200
Mn390      Mn  0.02076888  0.49791043  0.55907840     1.10100
Cl391      Cl  0.50023436  0.00664041  0.00628983    -0.87600
C392        C  0.49747740  0.39155736  0.53883211     0.94800
C393        C  0.43626263  0.01478357  0.60807216     0.94600
N394        N  0.30476454  0.20453749  0.01563196    -0.07700
N395        N  0.31822244  0.17563422  0.00860070    -0.59800
N396        N  0.29531156  0.27240135  0.56525033    -0.07400
N397        N  0.30369981  0.29141696  0.59210230    -0.62000
N398        N  0.27620865  0.24462051  0.57318703    -0.07000
N399        N  0.27153383  0.24427607  0.60494248    -0.59800
N400        N  0.32339354  0.23235159  0.00675489    -0.06700
N401        N  0.35012942  0.22260137  0.99370685    -0.62300
C402        C  0.34601854  0.18721655  0.99503636     0.94500
C403        C  0.28848158  0.27364932  0.61657151     0.94200
N404        N  0.26699956  0.34702002  0.50106748    -0.07900
N405        N  0.25926461  0.37891366  0.50896582    -0.60400
N406        N  0.31918182  0.30269051  0.96041815    -0.06000
N407        N  0.34638813  0.31110761  0.94409409    -0.61700
N408        N  0.29387153  0.31280211  0.94320558    -0.07900
N409        N  0.30353890  0.32840923  0.91550665    -0.60700
N410        N  0.29147397  0.33819542  0.52002286    -0.05700
N411        N  0.30093147  0.36380128  0.54146221    -0.61700
Mn412      Mn  0.30862513  0.28532637  0.51349238     1.18400
C413        C  0.28084207  0.38938208  0.53410662     0.96600
C414        C  0.33662129  0.32687552  0.91533160     0.97200
N415        N  0.20610862  0.20458613  0.56201059    -0.07900
N416        N  0.19789461  0.18769250  0.58924906    -0.64300
N417        N  0.20983455  0.17616821  0.98340893    -0.06700
N418        N  0.19885248  0.15065686  0.96245828    -0.64900
N419        N  0.23513717  0.16691785  0.00085216    -0.07400
N420        N  0.24189944  0.13480400  0.99238183    -0.64500
N421        N  0.17996455  0.21153811  0.54423295    -0.06300
N422        N  0.15335409  0.19836278  0.55982601    -0.65200
Mn423      Mn  0.25481902  0.20514999  0.53895261     1.10700
C424        C  0.16477711  0.18382812  0.58884149     0.97800
C425        C  0.21900120  0.12474875  0.96828898     0.97800
N426        N  0.22261839  0.27207585  0.93338523    -0.07500
N427        N  0.22759021  0.27217352  0.90167471    -0.62800
N428        N  0.17751789  0.28321953  0.49335119    -0.06800
N429        N  0.14928074  0.29454167  0.50127631    -0.59600
N430        N  0.19697434  0.30984073  0.48302839    -0.08100
N431        N  0.18236292  0.33904798  0.48351608    -0.62400
N432        N  0.20420396  0.24372828  0.94136135    -0.07100
N433        N  0.19674896  0.22414162  0.91468421    -0.59600
Mn434      Mn  0.24489707  0.31115329  0.96793899     1.20200
Mn435      Mn  0.19246877  0.22845691  0.99284810     1.10100
Cl436      Cl  0.24973374  0.25712309  0.50155880    -0.87600
C437        C  0.21169339  0.24206895  0.89023266     0.94800
C438        C  0.15294428  0.32925599  0.49445704     0.94600
N439        N  0.43776689  0.25426263  0.69855522    -0.07700
N440        N  0.40747963  0.24455853  0.68803531    -0.59800
N441        N  0.50256348  0.30370589  0.68055528    -0.07400
N442        N  0.01254372  0.32622199  0.66205156    -0.62000
N443        N  0.50364328  0.27121114  0.66922979    -0.07000
N444        N  0.01421353  0.27112427  0.64312078    -0.59800
N445        N  0.43858187  0.28561732  0.71275159    -0.06700
N446        N  0.40978214  0.29765752  0.71253648    -0.62300
C447        C  0.39062678  0.27211325  0.69712795     0.94500
C448        C  0.01961611  0.30524635  0.63644544     0.94200
N449        N  0.04354946  0.33048936  0.77857530    -0.07900
N450        N  0.07539425  0.33595300  0.77656948    -0.60400
N451        N  0.45796277  0.32444818  0.78010004    -0.06000
N452        N  0.42990895  0.33757707  0.78795966    -0.61700
N453        N  0.47293343  0.31391967  0.80699837    -0.07900
N454        N  0.45525133  0.31967674  0.83324276    -0.60700
N455        N  0.02877985  0.34098162  0.75157796    -0.05700
N456        N  0.05041161  0.35360599  0.73096851    -0.61700
Mn457      Mn  0.48156671  0.31534617  0.72993713     1.18400
C458        C  0.07938698  0.35046893  0.74681518     0.96600
C459        C  0.42778628  0.33451878  0.82158605     0.97200
N460        N  0.03092883  0.19802874  0.69159838    -0.07900
N461        N  0.04837301  0.18959824  0.66574092    -0.64300
N462        N  0.47812593  0.17318528  0.74940920    -0.06700
N463        N  0.45763769  0.15948947  0.77060388    -0.64900
N464        N  0.46217666  0.18391993  0.72315203    -0.07400
N465        N  0.43050615  0.17838560  0.72650602    -0.64500
N466        N  0.04516149  0.18785420  0.71902403    -0.06300
N467        N  0.07218264  0.17257219  0.71229764    -0.65200
Mn468      Mn  0.48349808  0.22618336  0.69371299     1.10700
C469        C  0.07465836  0.17352504  0.67880733     0.97800
C470        C  0.42821512  0.16306355  0.75605954     0.97800
N471        N  0.00101721  0.24120521  0.82918187    -0.07500
N472        N  0.49281846  0.24317840  0.85661555    -0.62800
N473        N  0.06668372  0.22765770  0.78555646    -0.06800
N474        N  0.09575532  0.21604083  0.78569024    -0.59600
N475        N  0.06726778  0.25887551  0.80005077    -0.08100
N476        N  0.09744457  0.26882659  0.81064140    -0.62400
N477        N  0.00213878  0.20895988  0.81746060    -0.07100
N478        N  0.49569701  0.18822784  0.83772678    -0.59600
Mn479      Mn  0.02154788  0.28670162  0.80578980     1.20200
Mn480      Mn  0.02289773  0.19798040  0.76851134     1.10100
Cl481      Cl  0.50276598  0.25759345  0.74767761    -0.87600
C482        C  0.48823801  0.20894033  0.86328876     0.94800
C483        C  0.11472245  0.24178887  0.80129019     0.94600
N484        N  0.28620091  0.43340018  0.80329419    -0.07700
N485        N  0.29795964  0.40509611  0.81754988    -0.59800
N486        N  0.26731642  0.00668086  0.83846016    -0.07400
N487        N  0.26669981  0.02642659  0.86519120    -0.62000
N488        N  0.24329640  0.98194170  0.83713441    -0.07000
N489        N  0.22506149  0.98492467  0.86302556    -0.59800
N490        N  0.30928763  0.45945972  0.80411905    -0.06700
N491        N  0.33660100  0.44917297  0.81883444    -0.62300
C492        C  0.32985324  0.41485658  0.82726586     0.94500
C493        C  0.24062687  0.01240699  0.88068785     0.94200
N494        N  0.27329064  0.08629904  0.76645062    -0.07900
N495        N  0.28665340  0.11902720  0.76772913    -0.60400
N496        N  0.32298988  0.52542169  0.75262500    -0.06000
N497        N  0.35377883  0.52020431  0.74741599    -0.61700
N498        N  0.30983939  0.54049889  0.72675923    -0.07900
N499        N  0.33094647  0.54598798  0.70400805    -0.60700
N500        N  0.28174389  0.07045035  0.79399576    -0.05700
N501        N  0.29732823  0.09325102  0.81472620    -0.61700
Mn502      Mn  0.29759183  0.01609220  0.79672715     1.18400
C503        C  0.30299951  0.12252998  0.79747665     0.96600
C504        C  0.35808392  0.53384399  0.71708866     0.97200
N505        N  0.18692957  0.96148755  0.78462890    -0.07900
N506        N  0.16559561  0.95556792  0.80719981    -0.64300
N507        N  0.21409924  0.43401737  0.71802419    -0.06700
N508        N  0.20233926  0.41091736  0.69552274    -0.64900
N509        N  0.22376787  0.41790048  0.74497486    -0.07400
N510        N  0.21578568  0.38366809  0.74126917    -0.64500
N511        N  0.17389722  0.97731868  0.75908449    -0.06300
N512        N  0.14316518  0.98244012  0.76428489    -0.65200
Mn513      Mn  0.23287749  0.44768050  0.79248881     1.10700
C514        C  0.13859893  0.96849562  0.79440208     0.97800
C515        C  0.20179013  0.37956408  0.71028501     0.97800
N516        N  0.25375409  0.52124341  0.67466893    -0.07500
N517        N  0.27129230  0.51882639  0.64823328    -0.62800
N518        N  0.18697887  0.04552897  0.70770127    -0.06800
N519        N  0.16079383  0.05608785  0.69093029    -0.59600
N520        N  0.21039919  0.07128750  0.70908181    -0.08100
N521        N  0.20005427  0.09936021  0.69331235    -0.62400
N522        N  0.22947763  0.49688025  0.67338860    -0.07100
N523        N  0.22924522  0.47772883  0.64622715    -0.59600
Mn524      Mn  0.26308460  0.05649080  0.71946945     1.20200
Mn525      Mn  0.19892052  0.48840728  0.71474843     1.10100
Cl526      Cl  0.24983373  0.00242729  0.75579706    -0.87600
C527        C  0.25514081  0.49181904  0.63048203     0.93400
C528        C  0.16848122  0.09033408  0.68231995     0.94600
C529        C  0.34361487  0.17150651  0.78544476    -0.10700
C530        C  0.33701838  0.13789899  0.79818209     0.05500
C531        C  0.36330986  0.11595967  0.80302919    -0.04500
C532        C  0.39294214  0.12523068  0.78939833    -0.09000
C533        C  0.39797434  0.15678736  0.77312973     0.04600
C534        C  0.37456142  0.18163363  0.77445272    -0.04000
Br535      Br  0.38509518  0.23025463  0.76617857    -0.03700
H536        H  0.32457128  0.18943608  0.78332084     0.08500
H537        H  0.41192332  0.10711220  0.79063459     0.06500
Br538      Br  0.36175087  0.07160927  0.82538612    -0.04100
C539        C  0.14594318  0.37046125  0.68708505    -0.10700
C540        C  0.17201343  0.35550375  0.70390318     0.05500
C541        C  0.16429558  0.32933386  0.72667924    -0.04500
C542        C  0.13355340  0.32730369  0.74016080    -0.09000
C543        C  0.11006013  0.35016518  0.72954280     0.04600
C544        C  0.11572095  0.37020735  0.70117820    -0.04000
Br545      Br  0.08579979  0.40207895  0.68349836    -0.03700
H546        H  0.15060088  0.38837520  0.66701028     0.08500
H547        H  0.12838810  0.30862159  0.75936621     0.06500
Br548      Br  0.19587965  0.29757667  0.73994953    -0.04100
C549        C  0.24955575  0.43889087  0.55182954    -0.10700
C550        C  0.27867548  0.42207155  0.55427625     0.05500
C551        C  0.30327749  0.43534084  0.57775450    -0.04500
C552        C  0.29665519  0.46147894  0.60071362    -0.09000
C553        C  0.26601350  0.47502024  0.60040085     0.04600
C554        C  0.24316752  0.46504471  0.57452823    -0.04000
Br555      Br  0.20209010  0.48537188  0.57011407    -0.03700
H556        H  0.23072101  0.43035006  0.53337730     0.08500
H557        H  0.31466897  0.46938300  0.62021576     0.06500
Br558      Br  0.34612479  0.41897831  0.58022668    -0.04100
C559        C  0.20228715  0.05341375  0.90077835    -0.10700
C560        C  0.22741967  0.03176605  0.90814784     0.05500
C561        C  0.24576100  0.03743614  0.93805349    -0.04500
C562        C  0.24105739  0.06650198  0.95830624    -0.09000
C563        C  0.21828723  0.09072005  0.94923741     0.04600
C564        C  0.19746656  0.08263903  0.92087519    -0.04000
Br565      Br  0.16366850  0.11128222  0.90601696    -0.03700
H566        H  0.18813416  0.04942895  0.87766475     0.08500
H567        H  0.25661200  0.07109341  0.98043200     0.06500
Br568      Br  0.27893911  0.00721635  0.95105808    -0.04100
C569        C  0.18354804  0.20418202  0.84799765    -0.10700
C570        C  0.20251717  0.23554279  0.85534657     0.05500
C571        C  0.19943242  0.26452409  0.83461453    -0.04500
C572        C  0.17084168  0.26580945  0.81528715    -0.09000
C573        C  0.14776124  0.23684157  0.81363149     0.04600
C574        C  0.15554896  0.20467210  0.82775481    -0.04000
Br575      Br  0.12633960  0.16269420  0.82727945    -0.03700
H576        H  0.18701031  0.18105298  0.86254260     0.08500
H577        H  0.16575484  0.29001246  0.80339799     0.06500
Br578      Br  0.23090708  0.30456555  0.83479009    -0.04100
C579        C  0.31754907  0.31010778  0.65901112    -0.10700
C580        C  0.29896947  0.27863731  0.65130069     0.05500
C581        C  0.30422503  0.24866091  0.67023805    -0.04500
C582        C  0.33411395  0.24724060  0.68725333    -0.09000
C583        C  0.35676926  0.27653144  0.68778389     0.04600
C584        C  0.34708843  0.30928960  0.67660157    -0.04000
Br585      Br  0.37483977  0.35240269  0.67790150    -0.03700
H586        H  0.31238996  0.33391255  0.64616080     0.08500
H587        H  0.34036661  0.22282126  0.69828750     0.06500
Br588      Br  0.27406897  0.20754217  0.67014711    -0.04100
C589        C  0.35894709  0.14167932  0.95805585    -0.10700
C590        C  0.36869856  0.16265157  0.98573853     0.05500
C591        C  0.38821175  0.14957034  0.01114050    -0.04500
C592        C  0.39439107  0.11425237  0.01055905    -0.09000
C593        C  0.38214522  0.09237028  0.98417940     0.04600
C594        C  0.36585049  0.10667976  0.95695931    -0.04000
Br595      Br  0.35158489  0.07916062  0.91829667    -0.03700
H596        H  0.34339140  0.15160526  0.93869740     0.08500
H597        H  0.40944601  0.10408191  0.03026279     0.06500
Br598      Br  0.40422354  0.17864318  0.04821407    -0.04100
C599        C  0.11274377  0.41107894  0.48363892    -0.10700
C600        C  0.11620151  0.42439842  0.51599776     0.05500
C601        C  0.12583141  0.40249771  0.54181009    -0.04500
C602        C  0.13310157  0.36831642  0.53466624    -0.09000
C603        C  0.13113459  0.35568929  0.50218490     0.04600
C604        C  0.12003572  0.37685210  0.47662964    -0.04000
Br605      Br  0.11597237  0.36041837  0.43164297    -0.03700
H606        H  0.10381113  0.42706587  0.46382328     0.08500
H607        H  0.14293696  0.35255770  0.55420880     0.06500
Br608      Br  0.13112215  0.41825846  0.58702855    -0.04100
C609        C  0.07971904  0.00975705  0.84671555    -0.10700
C610        C  0.07689744  0.48834932  0.87150226     0.05500
C611        C  0.07905171  0.45384626  0.86007402    -0.04500
C612        C  0.09432621  0.44837192  0.83085931    -0.09000
C613        C  0.11079138  0.97171290  0.81476545     0.04600
C614        C  0.09745702  0.00421763  0.81898938    -0.04000
Br615      Br  0.10635842  0.04348803  0.79078426    -0.03700
H616        H  0.07031226  0.03514261  0.85068931     0.08500
H617        H  0.09863568  0.42175593  0.82349412     0.06500
Br618      Br  0.06421329  0.41380485  0.88512331    -0.04100
C619        C  0.39495429  0.49954783  0.68713551    -0.10700
C620        C  0.38631087  0.53263444  0.69717922     0.05500
C621        C  0.39953759  0.05919446  0.67776247    -0.04500
C622        C  0.41576584  0.05373120  0.64912813    -0.09000
C623        C  0.41987747  0.01955132  0.63836910     0.04600
C624        C  0.41025277  0.49581126  0.65748921    -0.04000
Br625      Br  0.41917646  0.44950881  0.64322134    -0.03700
H626        H  0.38694526  0.47627874  0.70048752     0.08500
H627        H  0.42388607  0.07602671  0.63449225     0.06500
Br628      Br  0.39017410  0.10642074  0.68862863    -0.04100
C629        C  0.99049520  0.31089311  0.58326543    -0.10700
C630        C  0.01953303  0.31657063  0.60259903     0.05500
C631        C  0.04713362  0.33346629  0.58933301    -0.04500
C632        C  0.53850882  0.35273292  0.55534988    -0.09000
C633        C  0.50649656  0.35544232  0.54256510     0.04600
C634        C  0.48215646  0.32946739  0.55042852    -0.04000
Br635      Br  0.44041449  0.32411948  0.52729545    -0.03700
H636        H  0.96991900  0.29497576  0.59229052     0.08500
H637        H  0.55816716  0.37075081  0.54754143     0.06500
Br638      Br  0.08889733  0.33532508  0.61226543    -0.04100
C639        C  0.01579747  0.19806239  0.91723438    -0.10700
C640        C  0.48787657  0.19734449  0.89698124     0.05500
C641        C  0.45949635  0.18214806  0.91030132    -0.04500
C642        C  0.46202447  0.16539973  0.94040050    -0.09000
C643        C  0.99187325  0.16009682  0.95781606     0.04600
C644        C  0.01899508  0.18088297  0.94697738    -0.04000
Br645      Br  0.06191655  0.18148779  0.96764110    -0.03700
H646        H  0.03724611  0.21095343  0.90668743     0.08500
H647        H  0.44063320  0.14999880  0.94880680     0.06500
Br648      Br  0.41812623  0.18033653  0.88648072    -0.04100
C649        C  0.40648750  0.85160374  0.34368927     0.84900
C650        C  0.42388186  0.87893550  0.36787961    -0.55300
C651        C  0.40467260  0.89607142  0.38827852     0.07800
C652        C  0.36715937  0.88523331  0.38128539     0.18800
C653        C  0.38463574  0.82730210  0.36720203    -0.56100
C654        C  0.36355736  0.84440215  0.38728888     0.07900
C655        C  0.38108241  0.87279866  0.32435794    -0.55600
C656        C  0.36006792  0.89066179  0.34285218     0.08500
H657        H  0.45025632  0.88369141  0.36945852     0.13000
H658        H  0.35140174  0.90001196  0.39699307    -0.01200
H659        H  0.38609181  0.79904744  0.36787972     0.13300
H660        H  0.38034843  0.87415123  0.29767695     0.13100
C661        C  0.15015565  0.61278454  0.16272559     0.84900
C662        C  0.12738769  0.63543158  0.18131874    -0.55300
C663        C  0.10655752  0.65447313  0.16243493     0.07800
C664        C  0.11273718  0.65014856  0.12404035     0.18800
C665        C  0.12643518  0.59063153  0.13819448    -0.56100
C666        C  0.10677437  0.60939337  0.11769912     0.07900
C667        C  0.16898705  0.63910630  0.14033140    -0.55600
C668        C  0.15081264  0.65882793  0.11906916     0.08500
H669        H  0.12652701  0.63445000  0.20797175     0.13000
H670        H  0.09683979  0.66545263  0.10793737    -0.01200
H671        H  0.12516708  0.56205819  0.13730603     0.13300
H672        H  0.19540217  0.64077872  0.14056205     0.13100
N673        N  0.04972313  0.01767621  0.44648860    -0.07700
N674        N  0.07485510  0.01471154  0.42798777    -0.59800
N675        N  0.49357311  0.57253950  0.45594018    -0.07400
N676        N  0.47703362  0.59967178  0.44928806    -0.62000
N677        N  0.01804444  0.58290486  0.47403588    -0.07000
N678        N  0.01906127  0.61714791  0.47986832    -0.59800
N679        N  0.02249066  0.00739280  0.42958889    -0.06700
N680        N  0.02847202  0.99731192  0.39956247    -0.62300
C681        C  0.06109249  0.00161229  0.39915385     0.94500
C682        C  0.99067330  0.62639218  0.46577286     0.94200
N683        N  0.41609262  0.51758316  0.48860333    -0.07900
N684        N  0.39500852  0.52974567  0.00308210    -0.60400
N685        N  0.45374869  0.96287480  0.43563975    -0.06000
N686        N  0.44271899  0.94890213  0.40675960    -0.61700
N687        N  0.44005736  0.94551989  0.45991731    -0.07900
N688        N  0.41924092  0.91945642  0.44756175    -0.60700
N689        N  0.42833269  0.53076216  0.46181388    -0.05700
N690        N  0.41407293  0.55862571  0.45270864    -0.61700
Mn691      Mn  0.47442947  0.51807377  0.44485900     1.18400
C692        C  0.39228368  0.56224859  0.47570045     0.96600
C693        C  0.42103603  0.92178221  0.41416024     0.97200
N694        N  0.05919254  0.56796804  0.04844356    -0.07900
N695        N  0.08120579  0.59329619  0.05998019    -0.64300
N696        N  0.06734813  0.98286399  0.04146939    -0.06700
N697        N  0.08385858  0.95642740  0.05006305    -0.64900
N698        N  0.07601084  0.99975918  0.51782727    -0.07400
N699        N  0.09885061  0.98101585  0.50661318    -0.64500
N700        N  0.04646529  0.55065804  0.07327153    -0.06300
N701        N  0.06014395  0.56348417  0.10168327    -0.65200
Mn702      Mn  0.05062537  0.54512901  0.49327902     1.10700
C703        C  0.08125367  0.59088720  0.09346362     0.97800
C704        C  0.10624003  0.95612024  0.02723803     0.97800
N705        N  0.47757328  0.93165335  0.03327442    -0.07500
N706        N  0.47625320  0.89757885  0.02631088    -0.62800
N707        N  0.47483806  0.50387849  0.07850555    -0.06800
N708        N  0.46989407  0.51392576  0.10878988    -0.59600
N709        N  0.44715396  0.49281869  0.06268351    -0.08100
N710        N  0.42272520  0.49522839  0.08232137    -0.62400
N711        N  0.50469785  0.94157462  0.05062522    -0.07100
N712        N  0.02074094  0.91266560  0.05434299    -0.59600
Mn713      Mn  0.44564323  0.97089334  0.01450041     1.20200
Mn714      Mn  0.02183781  0.99361877  0.06066734     1.10100
Cl715      Cl  0.49587824  0.50905979  0.50298534    -0.87600
C716        C  0.50452518  0.88757470  0.04004657     0.94800
C717        C  0.43750370  0.50854237  0.11066122     0.94600
N718        N  0.30510703  0.70917457  0.51726656    -0.07700
N719        N  0.31872172  0.68013303  0.51128283    -0.59800
N720        N  0.29996678  0.77082004  0.06875416    -0.07400
N721        N  0.30797975  0.79016976  0.09553483    -0.62000
N722        N  0.28105148  0.74285091  0.07671640    -0.07000
N723        N  0.27624459  0.74276363  0.10850527    -0.59800
N724        N  0.32369216  0.73668540  0.50765166    -0.06700
N725        N  0.35043043  0.72661991  0.49491893    -0.62300
C726        C  0.34650992  0.69137978  0.49754854     0.94500
C727        C  0.29284069  0.77246846  0.12006131     0.94200
N728        N  0.27143477  0.84815656  0.00841070    -0.07900
N729        N  0.26450182  0.87992046  0.01785165    -0.60400
N730        N  0.32096483  0.80403860  0.45830466    -0.06000
N731        N  0.34881037  0.81265956  0.44310617    -0.61700
N732        N  0.29610175  0.81218668  0.43931808    -0.07900
N733        N  0.30668415  0.82659336  0.41140746    -0.60700
N734        N  0.29622630  0.83807801  0.02604134    -0.05700
N735        N  0.30675002  0.86268123  0.04809903    -0.61700
Mn736      Mn  0.31193243  0.78496345  0.01680336     1.18400
C737        C  0.28684387  0.88891543  0.04271388     0.96600
C738        C  0.33993982  0.82635313  0.41307016     0.97200
N739        N  0.21041682  0.70342594  0.06648603    -0.07900
N740        N  0.20247546  0.68549856  0.09318779    -0.64300
N741        N  0.21151187  0.67724096  0.48348652    -0.06700
N742        N  0.20151585  0.65085181  0.46321801    -0.64900
N743        N  0.23647246  0.66935250  0.50215192    -0.07400
N744        N  0.24402615  0.63712221  0.49520826    -0.64500
N745        N  0.18411106  0.71160204  0.04976878    -0.06300
N746        N  0.15762148  0.69843339  0.06533507    -0.65200
Mn747      Mn  0.25808676  0.70425027  0.04172799     1.10700
C748        C  0.16936729  0.68246336  0.09327244     0.97800
C749        C  0.22182090  0.62568364  0.47086677     0.97800
N750        N  0.22658292  0.76843087  0.42900082    -0.07500
N751        N  0.23335446  0.76695508  0.39788656    -0.62800
N752        N  0.18245955  0.78476328  0.00523526    -0.06800
N753        N  0.15730272  0.79596612  0.02016029    -0.59600
N754        N  0.20204439  0.81178445  0.99612012    -0.08100
N755        N  0.19106729  0.84137074  0.00529327    -0.62400
N756        N  0.20723654  0.74084359  0.43705485    -0.07100
N757        N  0.20048042  0.72048254  0.41061979    -0.59600
Mn758      Mn  0.24579282  0.81058403  0.46153480     1.20200
Mn759      Mn  0.19323499  0.72902543  0.48896764     1.10100
Cl760      Cl  0.25273353  0.75780311  0.00631489    -0.87600
C761        C  0.21707989  0.73719381  0.38641001     0.94800
C762        C  0.16376576  0.83123555  0.02029152     0.94600
N763        N  0.44056960  0.75227569  0.20078743    -0.07700
N764        N  0.40966832  0.74252407  0.19239243    -0.59800
N765        N  0.50686270  0.80018729  0.18017632    -0.07400
N766        N  0.02000605  0.82158298  0.16043018    -0.62000
N767        N  0.50664940  0.76732447  0.16958543    -0.07000
N768        N  0.02118995  0.76602216  0.14309846    -0.59800
N769        N  0.44240166  0.78421152  0.21388366    -0.06700
N770        N  0.41375348  0.79644474  0.21514867    -0.62300
C771        C  0.39349384  0.77058507  0.20173500     0.94500
C772        C  0.02835747  0.79982933  0.13587991     0.94200
N773        N  0.04798367  0.83063335  0.27569474    -0.07900
N774        N  0.07988478  0.83584232  0.27393307    -0.60400
N775        N  0.46332208  0.82471518  0.27954011    -0.06000
N776        N  0.43512419  0.83751775  0.28740243    -0.61700
N777        N  0.47859144  0.81477333  0.30650748    -0.07900
N778        N  0.46097373  0.82061667  0.33279562    -0.60700
N779        N  0.03351640  0.83951873  0.24793422    -0.05700
N780        N  0.05556389  0.85051017  0.22695880    -0.61700
Mn781      Mn  0.48617304  0.81402377  0.22917774     1.18400
C782        C  0.08442103  0.84818259  0.24342712     0.96600
C783        C  0.43322673  0.83491357  0.32109283     0.97200
N784        N  0.03502667  0.69575092  0.19217500    -0.07900
N785        N  0.05231198  0.68676198  0.16648159    -0.64300
N786        N  0.48260856  0.67182811  0.25203132    -0.06700
N787        N  0.46312777  0.65770390  0.27390523    -0.64900
N788        N  0.46570055  0.68194904  0.22616421    -0.07400
N789        N  0.43429139  0.67562921  0.23043578    -0.64500
N790        N  0.04979626  0.68707970  0.21980902    -0.06300
N791        N  0.07700890  0.67222241  0.21355050    -0.65200
Mn792      Mn  0.48602929  0.72346143  0.19522189     1.10700
C793        C  0.07897769  0.67195436  0.18010134     0.97800
C794        C  0.43325656  0.66035155  0.26011106     0.97800
N795        N  0.00683654  0.74240871  0.32861922    -0.07500
N796        N  0.49815007  0.74525065  0.35655342    -0.62800
N797        N  0.07144123  0.72884309  0.28401790    -0.06800
N798        N  0.10042973  0.71739535  0.28312268    -0.59600
N799        N  0.07229930  0.76012979  0.29829550    -0.08100
N800        N  0.10274479  0.77016939  0.30799745    -0.62400
N801        N  0.00769786  0.70994901  0.31732159    -0.07100
N802        N  0.49950478  0.68979514  0.33818404    -0.59600
Mn803      Mn  0.02638770  0.78752439  0.30398343     1.20200
Mn804      Mn  0.02825846  0.69800594  0.26870715     1.10100
Cl805      Cl  0.50689353  0.75664925  0.24789465    -0.87600
C806        C  0.49219173  0.71118078  0.36325806     0.94800
C807        C  0.11977568  0.74303935  0.29813631     0.94600
N808        N  0.29139372  0.93380331  0.30315973    -0.07700
N809        N  0.30317648  0.90515021  0.31662684    -0.59800
N810        N  0.26955353  0.50615225  0.34051156    -0.07400
N811        N  0.26964402  0.52638255  0.36692300    -0.62000
N812        N  0.24458412  0.48257489  0.33925532    -0.07000
N813        N  0.22644050  0.48682835  0.36505451    -0.59800
N814        N  0.31445968  0.95987976  0.30441865    -0.06700
N815        N  0.34183673  0.94928072  0.31866003    -0.62300
C816        C  0.33508619  0.91474055  0.32622717     0.94500
C817        C  0.24305918  0.51394543  0.38240177     0.94200
N818        N  0.27730105  0.58636665  0.27076745    -0.07900
N819        N  0.29184385  0.61857719  0.27252060    -0.60400
N820        N  0.32763928  0.02734075  0.25534714    -0.06000
N821        N  0.35778513  0.02014437  0.24979875    -0.61700
N822        N  0.31526576  0.04397709  0.23002915    -0.07900
N823        N  0.33658741  0.04877105  0.20729109    -0.60700
N824        N  0.28543094  0.56967406  0.29791108    -0.05700
N825        N  0.30197243  0.59142865  0.31893123    -0.61700
Mn826      Mn  0.29998993  0.51501348  0.29914559     1.18400
C827        C  0.30847053  0.62084158  0.30216545     0.96600
C828        C  0.36289764  0.03440672  0.21997463     0.97200
N829        N  0.18777951  0.46428795  0.28620403    -0.07900
N830        N  0.16616453  0.46336345  0.30899425    -0.64300
N831        N  0.21922722  0.93533651  0.21862590    -0.06700
N832        N  0.20683745  0.91201156  0.19651665    -0.64900
N833        N  0.22953242  0.91939950  0.24541966    -0.07400
N834        N  0.22235267  0.88508239  0.24179358    -0.64500
N835        N  0.17649316  0.47978237  0.25963829    -0.06300
N836        N  0.14713168  0.48979583  0.26401413    -0.65200
Mn837      Mn  0.23823747  0.94838811  0.29325646     1.10700
C838        C  0.14111276  0.47881601  0.29462460     0.97800
C839        C  0.20773914  0.88064105  0.21117219     0.97800
N840        N  0.25928163  0.02565869  0.17725697    -0.07500
N841        N  0.27743943  0.02456701  0.15119376    -0.62800
N842        N  0.19110223  0.54591548  0.21107123    -0.06800
N843        N  0.16491654  0.55612920  0.19436295    -0.59600
N844        N  0.21420948  0.57194932  0.21322960    -0.08100
N845        N  0.20366513  0.59999657  0.19770043    -0.62400
N846        N  0.23568509  0.00047757  0.17505156    -0.07100
N847        N  0.23650529  0.98226462  0.14742895    -0.59600
Mn848      Mn  0.26678383  0.55741687  0.22332221     1.20200
Mn849      Mn  0.20477384  0.98992640  0.21607373     1.10100
Cl850      Cl  0.25238303  0.50262832  0.25829542    -0.87600
C851        C  0.26227420  0.99781167  0.13241850     0.93400
C852        C  0.17233345  0.59037719  0.18631871     0.94600
C853        C  0.34997139  0.66922396  0.29176116    -0.10700
C854        C  0.34279192  0.63505617  0.30289425     0.05500
C855        C  0.36850016  0.61207303  0.30612917    -0.04500
C856        C  0.39836263  0.62171550  0.29309739    -0.09000
C857        C  0.40373487  0.65398555  0.27813612     0.04600
C858        C  0.38079764  0.67917339  0.28052017    -0.04000
Br859      Br  0.39144085  0.72769182  0.27164269    -0.03700
H860        H  0.33127596  0.68762166  0.29055844     0.08500
H861        H  0.41695591  0.60313859  0.29310229     0.06500
Br862      Br  0.36551337  0.56551210  0.32430181    -0.04100
C863        C  0.15338815  0.86588958  0.18529887    -0.10700
C864        C  0.17938921  0.85455538  0.20495154     0.05500
C865        C  0.17181881  0.83027508  0.22947870    -0.04500
C866        C  0.14046477  0.82791465  0.24160080    -0.09000
C867        C  0.11593321  0.84740402  0.22728242     0.04600
C868        C  0.12197130  0.86405505  0.19704301    -0.04000
Br869      Br  0.09035625  0.88913096  0.17290512    -0.03700
H870        H  0.15834595  0.88210716  0.16402057     0.08500
H871        H  0.13547835  0.81142346  0.26260771     0.06500
Br872      Br  0.20472298  0.80211314  0.24688924    -0.04100
C873        C  0.26633850  0.94799064  0.05306022    -0.10700
C874        C  0.28699049  0.92196125  0.06312466     0.05500
C875        C  0.30515954  0.92736011  0.09352611    -0.04500
C876        C  0.29994157  0.95592529  0.11412462    -0.09000
C877        C  0.27683046  0.97944797  0.10538883     0.04600
C878        C  0.26122145  0.97649007  0.07391505    -0.04000
Br879      Br  0.23165736  0.01005692  0.05927965    -0.03700
H880        H  0.25291998  0.94541413  0.02953089     0.08500
H881        H  0.31186703  0.95789741  0.13849621     0.06500
Br882      Br  0.33517260  0.89563544  0.11075913    -0.04100
C883        C  0.20302883  0.54985144  0.40822754    -0.10700
C884        C  0.23210640  0.53323146  0.41111916     0.05500
C885        C  0.25479852  0.54362207  0.43705915    -0.04500
C886        C  0.24970562  0.57217574  0.45758296    -0.09000
C887        C  0.22237553  0.59153973  0.45256375     0.04600
C888        C  0.19798727  0.57894923  0.42847976    -0.04000
Br889      Br  0.15806079  0.60082239  0.42030684    -0.03700
H890        H  0.18540487  0.54211870  0.38839061     0.08500
H891        H  0.26844394  0.58054296  0.47627836     0.06500
Br892      Br  0.29462315  0.52126103  0.44376680    -0.04100
C893        C  0.18840520  0.70209806  0.34190286    -0.10700
C894        C  0.20728596  0.73287057  0.35147098     0.05500
C895        C  0.20408562  0.76358707  0.33299551    -0.04500
C896        C  0.17517723  0.76664454  0.31486895    -0.09000
C897        C  0.15286548  0.73743929  0.30987063     0.04600
C898        C  0.16149579  0.70388581  0.32025727    -0.04000
Br899      Br  0.13563294  0.66025140  0.31112022    -0.03700
H900        H  0.19187697  0.67776087  0.35451872     0.08500
H901        H  0.16957136  0.79214969  0.30594965     0.06500
Br902      Br  0.23558438  0.80376521  0.33510145    -0.04100
C903        C  0.32135942  0.80962371  0.16291213    -0.10700
C904        C  0.30256515  0.77833754  0.15501973     0.05500
C905        C  0.30657227  0.74888844  0.17493026    -0.04500
C906        C  0.33622185  0.74683328  0.19239401    -0.09000
C907        C  0.35940917  0.77571724  0.19314240     0.04600
C908        C  0.35004287  0.80871535  0.18208161    -0.04000
Br909      Br  0.37676292  0.85240930  0.18688261    -0.03700
H910        H  0.31667296  0.83338740  0.14994628     0.08500
H911        H  0.34175442  0.72239418  0.20382965     0.06500
Br912      Br  0.27421088  0.70993253  0.17631268    -0.04100
C913        C  0.36328578  0.65038179  0.45788437    -0.10700
C914        C  0.36911267  0.66671991  0.48875246     0.05500
C915        C  0.38359656  0.64907705  0.51487149    -0.04500
C916        C  0.38877819  0.61380784  0.51100542    -0.09000
C917        C  0.38069593  0.59652847  0.48079776     0.04600
C918        C  0.36924703  0.61535233  0.45364952    -0.04000
Br919      Br  0.35987511  0.59403756  0.41085374    -0.03700
H920        H  0.35128341  0.66380744  0.43800714     0.08500
H921        H  0.39970393  0.60009709  0.53138920     0.06500
Br922      Br  0.39314545  0.67165934  0.55713547    -0.04100
C923        C  0.11137894  0.90028655  0.99984030    -0.10700
C924        C  0.12354552  0.92532950  0.02368481     0.05500
C925        C  0.14379725  0.91593742  0.05018281    -0.04500
C926        C  0.15283975  0.88179920  0.05194195    -0.09000
C927        C  0.14171057  0.85702023  0.02750188     0.04600
C928        C  0.12029408  0.86599865  0.00171582    -0.04000
Br929      Br  0.10566709  0.83319159  0.96681965    -0.03700
H930        H  0.09421341  0.90712216  0.98047376     0.08500
H931        H  0.17056826  0.87528151  0.07095968     0.06500
Br932      Br  0.15993415  0.94928785  0.08404718    -0.04100
C933        C  0.09986740  0.52622643  0.35797278    -0.10700
C934        C  0.07867552  0.99781178  0.36940383     0.05500
C935        C  0.07375775  0.96696331  0.34989379    -0.04500
C936        C  0.09281335  0.96309880  0.32296709    -0.09000
C937        C  0.11484783  0.48948943  0.31344609     0.04600
C938        C  0.11904230  0.52140221  0.33132294    -0.04000
Br939      Br  0.15292098  0.55717766  0.32240708    -0.03700
H940        H  0.10385793  0.55023778  0.37267478     0.08500
H941        H  0.09110661  0.93818453  0.30955152     0.06500
Br942      Br  0.04441892  0.92774911  0.36111413    -0.04100
C943        C  0.39587471  0.99419133  0.19163720    -0.10700
C944        C  0.38990732  0.02890250  0.19949823     0.05500
C945        C  0.40447479  0.55471132  0.18136386    -0.04500
C946        C  0.42044248  0.54824768  0.15281410    -0.09000
C947        C  0.42136737  0.51383949  0.14101814     0.04600
C948        C  0.41199568  0.98698979  0.16317366    -0.04000
Br949      Br  0.41699907  0.93888248  0.15146470    -0.03700
H950        H  0.38545448  0.97258339  0.20580616     0.08500
H951        H  0.43080859  0.57015717  0.13895659     0.06500
Br952      Br  0.39949483  0.60273311  0.19340248    -0.04100
C953        C  0.99502227  0.80536822  0.08600058    -0.10700
C954        C  0.02605429  0.80994739  0.10166486     0.05500
C955        C  0.05176530  0.82767609  0.08582185    -0.04500
C956        C  0.54522851  0.84796773  0.05694792    -0.09000
C957        C  0.51278417  0.85148660  0.04570567     0.04600
C958        C  0.48823105  0.82613058  0.05460960    -0.04000
Br959      Br  0.44413254  0.82436037  0.03704874    -0.03700
H960        H  0.97555776  0.78982977  0.09741551     0.08500
H961        H  0.56475394  0.86593265  0.04881967     0.06500
Br962      Br  0.09583175  0.82949905  0.10334773    -0.04100
C963        C  0.01084939  0.70413247  0.42183856    -0.10700
C964        C  0.48846512  0.69969010  0.39659659     0.05500
C965        C  0.45941584  0.68230208  0.40626687    -0.04500
C966        C  0.45921245  0.66601556  0.43665099    -0.09000
C967        C  0.98360271  0.66215415  0.45685228     0.04600
C968        C  0.00987568  0.68697055  0.45184904    -0.04000
Br969      Br  0.04672273  0.69434097  0.48244921    -0.03700
H970        H  0.03245112  0.72027916  0.41599665     0.08500
H971        H  0.43768901  0.64941718  0.44250484     0.06500
Br972      Br  0.42135956  0.67626299  0.37712371    -0.04100
C973        C  0.40349905  0.85230492  0.84734355     0.84900
C974        C  0.42150089  0.87991614  0.87082401    -0.55300
C975        C  0.40285052  0.89760945  0.89134273     0.07800
C976        C  0.36509565  0.88690655  0.88491039     0.18800
C977        C  0.38212166  0.82853906  0.87141514    -0.56100
C978        C  0.36154582  0.84596025  0.89160720     0.07900
C979        C  0.37808500  0.87327839  0.82792107    -0.55600
C980        C  0.35756732  0.89189175  0.84622176     0.08500
H981        H  0.44790888  0.88425177  0.87199660     0.13000
H982        H  0.34965306  0.90201052  0.90067655    -0.01200
H983        H  0.38360504  0.80030372  0.87248090     0.13300
H984        H  0.37704405  0.87402052  0.80120520     0.13100
C985        C  0.14616780  0.61394179  0.65732941     0.84900
C986        C  0.12410211  0.63743232  0.67617853    -0.55300
C987        C  0.10358860  0.65727737  0.65762839     0.07800
C988        C  0.10954157  0.65286266  0.61904897     0.18800
C989        C  0.12178673  0.59271984  0.63292156    -0.56100
C990        C  0.10251262  0.61215498  0.61271997     0.07900
C991        C  0.16551524  0.63999216  0.63464480    -0.55600
C992        C  0.14779646  0.66053747  0.61350630     0.08500
H993        H  0.12329847  0.63626840  0.70282231     0.13000
H994        H  0.09387939  0.66861559  0.60312489    -0.01200
H995        H  0.11973320  0.56413262  0.63193213     0.13300
H996        H  0.19188822  0.64085888  0.63458540     0.13100
N997        N  0.04937095  0.01393482  0.94535397    -0.07700
N998        N  0.07394525  0.00634357  0.92751019    -0.59800
N999        N  0.49452620  0.56926803  0.95800904    -0.07400
N1000       N  0.47811413  0.59664496  0.95180760    -0.62000
N1001       N  0.02402290  0.58100172  0.97705117    -0.07000
N1002       N  0.02710232  0.61562699  0.98078024    -0.59800
N1003       N  0.02159157  0.00442051  0.92910563    -0.06700
N1004       N  0.02653733  0.99054383  0.90016047    -0.62300
C1005       C  0.05910946  0.99148904  0.89979782     0.94500
C1006       C  0.99966962  0.62593977  0.96549497     0.94200
N1007       N  0.41842549  0.51165146  0.99200563    -0.07900
N1008       N  0.39351716  0.53717877  0.49904444    -0.60400
N1009       N  0.45489714  0.96241919  0.93866887    -0.06000
N1010       N  0.44317900  0.94890510  0.90979220    -0.61700
N1011       N  0.44040191  0.94592851  0.96292249    -0.07900
N1012       N  0.41840604  0.92091847  0.95060958    -0.60700
N1013       N  0.43002777  0.52629203  0.96550281    -0.05700
N1014       N  0.41455907  0.55354849  0.95709850    -0.61700
Mn1015     Mn  0.47545091  0.51489058  0.94646081     1.18400
C1016       C  0.39264442  0.55517975  0.98021767     0.96600
C1017       C  0.42020668  0.92296281  0.91718759     0.97200
N1018       N  0.05443541  0.57076246  0.54413577    -0.07900
N1019       N  0.07595167  0.59662803  0.55548277    -0.64300
N1020       N  0.06359671  0.98488110  0.54383233    -0.06700
N1021       N  0.07794936  0.95650077  0.55154735    -0.64900
N1022       N  0.07875973  0.99798959  0.01519643    -0.07400
N1023       N  0.10319357  0.98136369  0.00442166    -0.64500
N1024       N  0.04240642  0.55294391  0.56895428    -0.06300
N1025       N  0.05607796  0.56603205  0.59725636    -0.65200
Mn1026     Mn  0.05485034  0.54187223  0.99736009     1.10700
C1027       C  0.07642990  0.59406066  0.58892651     0.97800
C1028       C  0.10007999  0.95453837  0.52852359     0.97800
N1029       N  0.47655754  0.93249820  0.53110095    -0.07500
N1030       N  0.47591270  0.89827679  0.52493763    -0.62800
N1031       N  0.47105014  0.51230769  0.57686122    -0.06800
N1032       N  0.46598564  0.52472442  0.60634436    -0.59600
N1033       N  0.44329532  0.50228724  0.56067716    -0.08100
N1034       N  0.41871729  0.50780015  0.57936872    -0.62400
N1035       N  0.50333860  0.94339189  0.54853372    -0.07100
N1036       N  0.01440335  0.91690092  0.55394463    -0.59600
Mn1037     Mn  0.44404426  0.97063541  0.51144232     1.20200
Mn1038     Mn  0.01780271  0.99825503  0.56154147     1.10100
Cl1039     Cl  0.49844672  0.50450482  0.00374249    -0.87600
C1040       C  0.50437519  0.88925767  0.53911256     0.94800
C1041       C  0.43343077  0.52222260  0.60737783     0.94600
N1042       N  0.30361943  0.70346131  0.01721101    -0.07700
N1043       N  0.31417905  0.67371965  0.00785586    -0.59800
N1044       N  0.29609690  0.77790168  0.56451211    -0.07400
N1045       N  0.30476278  0.79685392  0.59140448    -0.62000
N1046       N  0.27738813  0.74985197  0.57257991    -0.07000
N1047       N  0.27306047  0.74945756  0.60434587    -0.59800
N1048       N  0.32329205  0.73035173  0.00811861    -0.06700
N1049       N  0.34809955  0.71887678  0.99273003    -0.62300
C1050       C  0.34136413  0.68358749  0.99258440     0.94500
C1051       C  0.29000650  0.77879428  0.61601065     0.94200
N1052       N  0.26631363  0.85020922  0.49842064    -0.07900
N1053       N  0.25799004  0.88205386  0.50588628    -0.60400
N1054       N  0.32150088  0.80212722  0.96262687    -0.06000
N1055       N  0.34869359  0.81110683  0.94644174    -0.61700
N1056       N  0.29619885  0.81262198  0.94567743    -0.07900
N1057       N  0.30581731  0.82904388  0.91837053    -0.60700
N1058       N  0.29092654  0.84219531  0.51756977    -0.05700
N1059       N  0.30001590  0.86823197  0.53856444    -0.61700
Mn1060     Mn  0.30931165  0.79004674  0.51249844     1.18400
C1061       C  0.27954882  0.89327500  0.53085548     0.96600
C1062       C  0.33888029  0.82768963  0.91810718     0.97200
N1063       N  0.20830980  0.70637544  0.56160526    -0.07900
N1064       N  0.19991315  0.68905084  0.58861711    -0.64300
N1065       N  0.20887382  0.67782553  0.98646732    -0.06700
N1066       N  0.19742752  0.65321933  0.96483576    -0.64900
N1067       N  0.23382951  0.66758354  0.00374984    -0.07400
N1068       N  0.23992763  0.63549400  0.99438041    -0.64500
N1069       N  0.18223168  0.71267020  0.54343454    -0.06300
N1070       N  0.15556801  0.69878029  0.55843372    -0.65200
Mn1071     Mn  0.25756837  0.70873699  0.53896663     1.10700
C1072       C  0.16675308  0.68437812  0.58753819     0.97800
C1073       C  0.21691380  0.62665759  0.96997768     0.97800
N1074       N  0.22425106  0.77287042  0.93641512    -0.07500
N1075       N  0.22842788  0.77307788  0.90456481    -0.62800
N1076       N  0.17888669  0.78331572  0.49309755    -0.06800
N1077       N  0.15167496  0.79392493  0.50448186    -0.59600
N1078       N  0.19737490  0.81052378  0.48243243    -0.08100
N1079       N  0.18308561  0.83965488  0.48630387    -0.62400
N1080       N  0.20500998  0.74519034  0.94451983    -0.07100
N1081       N  0.19617287  0.72617748  0.91778380    -0.59600
Mn1082     Mn  0.24764413  0.81158635  0.97078154     1.20200
Mn1083     Mn  0.19337550  0.73035402  0.99611830     1.10100
Cl1084     Cl  0.25128111  0.75975863  0.50063153    -0.87600
C1085       C  0.21112616  0.74377258  0.89315299     0.94800
C1086       C  0.15497630  0.82900220  0.49975740     0.94600
N1087       N  0.43748333  0.75434577  0.70159729    -0.07700
N1088       N  0.40708400  0.74528699  0.69100327    -0.59800
N1089       N  0.50317536  0.80294148  0.68403488    -0.07400
N1090       N  0.01003650  0.82594113  0.65559784    -0.62000
N1091       N  0.50381427  0.77045033  0.67258020    -0.07000
N1092       N  0.01195585  0.77058797  0.63745099    -0.59800
N1093       N  0.43873473  0.78550408  0.71619342    -0.06700
N1094       N  0.41014099  0.79798811  0.71624467    -0.62300
C1095       C  0.39061527  0.77300051  0.70052601     0.94500
C1096       C  0.01631766  0.80459654  0.62995449     0.94200
N1097       N  0.04333384  0.83292734  0.77326385    -0.07900
N1098       N  0.07520281  0.83847267  0.77162565    -0.60400
N1099       N  0.45893634  0.82397676  0.78325113    -0.06000
N1100       N  0.43119266  0.83756863  0.79118342    -0.61700
N1101       N  0.47401210  0.81346441  0.81008601    -0.07900
N1102       N  0.45669207  0.81968124  0.83644519    -0.60700
N1103       N  0.02884919  0.84217001  0.74561228    -0.05700
N1104       N  0.05081471  0.85382628  0.72483309    -0.61700
Mn1105     Mn  0.48197598  0.81473781  0.73320830     1.18400
C1106       C  0.07962218  0.85157850  0.74140617     0.96600
C1107       C  0.42941316  0.83480854  0.82480426     0.97200
N1108       N  0.03229901  0.69943560  0.68830120    -0.07900
N1109       N  0.04946290  0.69038241  0.66246421    -0.64300
N1110       N  0.47595431  0.67277990  0.75223223    -0.06700
N1111       N  0.45494188  0.65975664  0.77328513    -0.64900
N1112       N  0.46049774  0.68363785  0.72572202    -0.07400
N1113       N  0.42870260  0.67878538  0.72870199    -0.64500
N1114       N  0.04714311  0.69047112  0.71585255    -0.06300
N1115       N  0.07424533  0.67538769  0.70927171    -0.65200
Mn1116     Mn  0.48278459  0.72556095  0.69654983     1.10700
C1117       C  0.07616833  0.67524449  0.67575161     0.97800
C1118       C  0.42574839  0.66383907  0.75835473     0.97800
N1119       N  0.00275557  0.74393743  0.82572455    -0.07500
N1120       N  0.49181574  0.74292530  0.85912005    -0.62800
N1121       N  0.06855580  0.73165964  0.78168405    -0.06800
N1122       N  0.09769063  0.72018778  0.78296676    -0.59600
N1123       N  0.06844440  0.76275346  0.79624023    -0.08100
N1124       N  0.09821135  0.77274840  0.80807985    -0.62400
N1125       N  0.00462698  0.71169038  0.81428011    -0.07100
N1126       N  0.49298341  0.68771302  0.84035723    -0.59600
Mn1127     Mn  0.02201127  0.78945734  0.80135140     1.20200
Mn1128     Mn  0.02534089  0.70072335  0.76526306     1.10100
Cl1129     Cl  0.50254974  0.75659683  0.75061434    -0.87600
C1130       C  0.48569090  0.70884221  0.86572666     0.94800
C1131       C  0.11599970  0.74586632  0.79936051     0.94600
N1132       N  0.29017422  0.93403293  0.80258083    -0.07700
N1133       N  0.30146644  0.90595488  0.81761716    -0.59800
N1134       N  0.26369252  0.50677549  0.83860495    -0.07400
N1135       N  0.26279401  0.52763124  0.86456423    -0.62000
N1136       N  0.23916288  0.48261511  0.83741949    -0.07000
N1137       N  0.22037624  0.48710420  0.86267617    -0.59800
N1138       N  0.31307343  0.96029305  0.80409506    -0.06700
N1139       N  0.33985662  0.95025224  0.82011895    -0.62300
C1140       C  0.33287745  0.91595994  0.82866677     0.94500
C1141       C  0.23605816  0.51495614  0.87976044     0.94200
N1142       N  0.27040495  0.58527619  0.76647657    -0.07900
N1143       N  0.28350803  0.61808954  0.76780875    -0.60400
N1144       N  0.32573548  0.02663771  0.75231505    -0.06000
N1145       N  0.35620465  0.02042223  0.74690926    -0.61700
N1146       N  0.31275691  0.04200469  0.72648382    -0.07900
N1147       N  0.33386965  0.04685479  0.70360170    -0.60700
N1148       N  0.27878455  0.56953346  0.79406616    -0.05700
N1149       N  0.29410663  0.59240083  0.81489258    -0.61700
Mn1150     Mn  0.29435471  0.51524175  0.79691740     1.18400
C1151       C  0.29968088  0.62168910  0.79764223     0.96600
C1152       C  0.36070117  0.03388398  0.71660606     0.97200
N1153       N  0.18263988  0.46200706  0.78455681    -0.07900
N1154       N  0.16074574  0.45732050  0.80681165    -0.64300
N1155       N  0.21817174  0.93524203  0.71717657    -0.06700
N1156       N  0.20614509  0.91252077  0.69448594    -0.64900
N1157       N  0.22787656  0.91874171  0.74388048    -0.07400
N1158       N  0.21935562  0.88464667  0.73989002    -0.64500
N1159       N  0.17042476  0.47778968  0.75853349    -0.06300
N1160       N  0.13991235  0.48425801  0.76302777    -0.65200
Mn1161     Mn  0.23707319  0.94787949  0.79174936     1.10700
C1162       C  0.13442623  0.47093526  0.79312337     0.97800
C1163       C  0.20504174  0.88105515  0.70900013     0.97800
N1164       N  0.25612380  0.02286740  0.67411881    -0.07500
N1165       N  0.27291478  0.02108469  0.64706101    -0.62800
N1166       N  0.18478383  0.54503763  0.70690685    -0.06800
N1167       N  0.15919395  0.55593447  0.68941008    -0.59600
N1168       N  0.20842683  0.57052732  0.70882136    -0.08100
N1169       N  0.19889811  0.59873300  0.69274239    -0.62400
N1170       N  0.23191687  0.99842280  0.67305110    -0.07100
N1171       N  0.23104077  0.97980921  0.64551151    -0.59600
Mn1172     Mn  0.26049953  0.55519348  0.71967763     1.20200
Mn1173     Mn  0.20195839  0.98915523  0.71487567     1.10100
Cl1174     Cl  0.24653201  0.50154137  0.75604726    -0.87600
C1175       C  0.25640514  0.99430860  0.62923378     0.93400
C1176       C  0.16759766  0.59007423  0.68090075     0.94600
C1177       C  0.34003855  0.67088121  0.78583498    -0.10700
C1178       C  0.33361992  0.63723236  0.79847408     0.05500
C1179       C  0.36005929  0.61553818  0.80351512    -0.04500
C1180       C  0.38988828  0.62530951  0.79048987    -0.09000
C1181       C  0.39499642  0.65709831  0.77460097     0.04600
C1182       C  0.37109502  0.68148534  0.77540007    -0.04000
Br1183     Br  0.38087490  0.73023348  0.76748406    -0.03700
H1184       H  0.32079218  0.68854389  0.78347131     0.08500
H1185       H  0.40904445  0.60741603  0.79197930     0.06500
Br1186     Br  0.35858242  0.57099069  0.82556128    -0.04100
C1187       C  0.14897520  0.87346066  0.68535609    -0.10700
C1188       C  0.17446290  0.85814140  0.70289320     0.05500
C1189       C  0.16597551  0.83188253  0.72540485    -0.04500
C1190       C  0.13442704  0.82906687  0.73700990    -0.09000
C1191       C  0.11099808  0.85147555  0.72528641     0.04600
C1192       C  0.11791044  0.87226019  0.69770032    -0.04000
Br1193     Br  0.08841663  0.90422477  0.67943902    -0.03700
H1194       H  0.15437393  0.89192083  0.66583663     0.08500
H1195       H  0.12863176  0.81023479  0.75612148     0.06500
Br1196     Br  0.19766637  0.80145314  0.74147461    -0.04100
C1197       C  0.24790206  0.94207419  0.55004149    -0.10700
C1198       C  0.27747519  0.92610974  0.55078286     0.05500
C1199       C  0.30303328  0.94005827  0.57289108    -0.04500
C1200       C  0.29707841  0.96572178  0.59657463    -0.09000
C1201       C  0.26616454  0.97833003  0.59818548     0.04600
C1202       C  0.24226023  0.96804714  0.57330425    -0.04000
Br1203     Br  0.20093664  0.98799624  0.57097448    -0.03700
H1204       H  0.22832810  0.93300714  0.53257266     0.08500
H1205       H  0.31595134  0.97394687  0.61514272     0.06500
Br1206     Br  0.34641230  0.92516302  0.57241700    -0.04100
C1207       C  0.19932566  0.55813382  0.89988856    -0.10700
C1208       C  0.22334569  0.53503253  0.90715059     0.05500
C1209       C  0.24134360  0.53928076  0.93738658    -0.04500
C1210       C  0.23740638  0.56806089  0.95825735    -0.09000
C1211       C  0.21559787  0.59337451  0.94968813     0.04600
C1212       C  0.19508565  0.58698003  0.92077603    -0.04000
Br1213     Br  0.16233562  0.61725814  0.90648266    -0.03700
H1214       H  0.18545201  0.55533428  0.87651845     0.08500
H1215       H  0.25271867  0.57141419  0.98069006     0.06500
Br1216     Br  0.27289984  0.50718685  0.95027251    -0.04100
C1217       C  0.18128944  0.70731057  0.85056313    -0.10700
C1218       C  0.20079225  0.73818983  0.85842800     0.05500
C1219       C  0.19904102  0.76738481  0.83767525    -0.04500
C1220       C  0.17147454  0.76917869  0.81692300    -0.09000
C1221       C  0.14821817  0.74047449  0.81377499     0.04600
C1222       C  0.15483230  0.70809090  0.82827193    -0.04000
Br1223     Br  0.12615114  0.66572516  0.82440835    -0.03700
H1224       H  0.18369619  0.68404169  0.86515704     0.08500
H1225       H  0.16735805  0.79353629  0.80467811     0.06500
Br1226     Br  0.23143570  0.80660260  0.83863860    -0.04100
C1227       C  0.32062388  0.81342610  0.65942596    -0.10700
C1228       C  0.30158415  0.78253789  0.65057006     0.05500
C1229       C  0.30528100  0.75196969  0.66927813    -0.04500
C1230       C  0.33413808  0.74957580  0.68784604    -0.09000
C1231       C  0.35709966  0.77852077  0.69049849     0.04600
C1232       C  0.34843316  0.81183224  0.67974350    -0.04000
Br1233     Br  0.37540645  0.85514353  0.68645750    -0.03700
H1234       H  0.31668211  0.83768788  0.64679266     0.08500
H1235       H  0.33944385  0.72466181  0.69850806     0.06500
Br1236     Br  0.27450206  0.71126544  0.66739861    -0.04100
C1237       C  0.34972751  0.63374638  0.95830547    -0.10700
C1238       C  0.36232800  0.65728042  0.98326739     0.05500
C1239       C  0.38437446  0.64653717  0.00765674    -0.04500
C1240       C  0.39159257  0.61155980  0.00837685    -0.09000
C1241       C  0.37762817  0.58759683  0.98436861     0.04600
C1242       C  0.35772811  0.59909310  0.95841714    -0.04000
Br1243     Br  0.34109826  0.56823300  0.92275752    -0.03700
H1244       H  0.33188995  0.64170809  0.94007601     0.08500
H1245       H  0.40895104  0.60330320  0.02702776     0.06500
Br1246     Br  0.40253305  0.67826916  0.04199423    -0.04100
C1247       C  0.10777134  0.90597712  0.49053444    -0.10700
C1248       C  0.11363716  0.92134359  0.52193082     0.05500
C1249       C  0.12724568  0.90207767  0.54768925    -0.04500
C1250       C  0.13710404  0.86876319  0.54097401    -0.09000
C1251       C  0.13273897  0.85426585  0.50915308     0.04600
C1252       C  0.11700656  0.87242662  0.48410097    -0.04000
Br1253     Br  0.10963139  0.85303369  0.44030180    -0.03700
H1254       H  0.09567742  0.91994802  0.47103854     0.08500
H1255       H  0.15025761  0.85521258  0.56003256     0.06500
Br1256     Br  0.13469480  0.92087869  0.59173906    -0.04100
C1257       C  0.08729969  0.51704228  0.85250013    -0.10700
C1258       C  0.07579571  0.98361126  0.87036401     0.05500
C1259       C  0.08730821  0.95053110  0.86530759    -0.04500
C1260       C  0.10434213  0.94460322  0.83727041    -0.09000
C1261       C  0.10712780  0.47706865  0.81299005     0.04600
C1262       C  0.10229659  0.51162781  0.82305986    -0.04000
Br1263     Br  0.11938112  0.55223271  0.80007617    -0.03700
H1264       H  0.08443828  0.54364571  0.86099181     0.08500
H1265       H  0.11486538  0.91963384  0.83438817     0.06500
Br1266     Br  0.08240557  0.91386922  0.89708236    -0.04100
C1267       C  0.39472638  0.99608316  0.68689272    -0.10700
C1268       C  0.38822888  0.03015346  0.69632873     0.05500
C1269       C  0.39565812  0.56267541  0.67887914    -0.04500
C1270       C  0.41157642  0.55897993  0.64970594    -0.09000
C1271       C  0.41747954  0.52555141  0.63823280     0.04600
C1272       C  0.41020697  0.99058292  0.65766778    -0.04000
Br1273     Br  0.41634476  0.94321077  0.64424975    -0.03700
H1274       H  0.38510784  0.97362519  0.70047371     0.08500
H1275       H  0.41799347  0.58195998  0.63524291     0.06500
Br1276     Br  0.38346875  0.60869588  0.69060734    -0.04100
C1277       C  0.98587694  0.80969817  0.57723084    -0.10700
C1278       C  0.01535981  0.81542689  0.59588346     0.05500
C1279       C  0.04229029  0.83335270  0.58222376    -0.04500
C1280       C  0.54479600  0.85174107  0.56049253    -0.09000
C1281       C  0.51344182  0.85355120  0.54560543     0.04600
C1282       C  0.48888138  0.82754891  0.55279745    -0.04000
Br1283     Br  0.44859966  0.82056594  0.52720759    -0.03700
H1284       H  0.96573697  0.79328081  0.58651361     0.08500
H1285       H  0.56471586  0.86974422  0.55342172     0.06500
Br1286     Br  0.08418482  0.83753311  0.60488758    -0.04100
C1287       C  0.01806991  0.70164967  0.91556440    -0.10700
C1288       C  0.48512460  0.69744408  0.89949228     0.05500
C1289       C  0.45697073  0.68148441  0.91267139    -0.04500
C1290       C  0.45986503  0.66421254  0.94246388    -0.09000
C1291       C  0.99429181  0.66155366  0.95465821     0.04600
C1292       C  0.02098569  0.68383610  0.94507823    -0.04000
Br1293     Br  0.06277790  0.68695105  0.96820775    -0.03700
H1294       H  0.03943735  0.71596640  0.90606964     0.08500
H1295       H  0.43869853  0.64833607  0.95071261     0.06500
Br1296     Br  0.41556121  0.67887202  0.88892396    -0.04100
C1297       C  0.90542002  0.35165959  0.34264115     0.84900
C1298       C  0.92274494  0.37903618  0.36679766    -0.55300
C1299       C  0.90352272  0.39614150  0.38718521     0.07800
C1300       C  0.86600546  0.38525027  0.38020588     0.18800
C1301       C  0.88356438  0.32734937  0.36619398    -0.56100
C1302       C  0.86241125  0.34441628  0.38625471     0.07900
C1303       C  0.87998745  0.37280351  0.32328037    -0.55600
C1304       C  0.85893459  0.39064361  0.34176534     0.08500
H1305       H  0.94911658  0.38383614  0.36838278     0.13000
H1306       H  0.85023649  0.40004243  0.39588965    -0.01200
H1307       H  0.88507723  0.29910571  0.36691257     0.13300
H1308       H  0.87929301  0.37417714  0.29660021     0.13100
C1309       C  0.64940079  0.11256187  0.16354400     0.84900
C1310       C  0.62636862  0.13493989  0.18210655    -0.55300
C1311       C  0.60544499  0.15385036  0.16318014     0.07800
C1312       C  0.61179596  0.14967897  0.12482360     0.18800
C1313       C  0.62588562  0.09027916  0.13893140    -0.56100
C1314       C  0.60610943  0.10894775  0.11847612     0.07900
C1315       C  0.66811177  0.13906806  0.14123754    -0.55600
C1316       C  0.64984275  0.15861382  0.11991247     0.08500
H1317       H  0.62540150  0.13385478  0.20874573     0.13000
H1318       H  0.59581885  0.16485334  0.10868310    -0.01200
H1319       H  0.62480350  0.06171406  0.13799054     0.13300
H1320       H  0.69453142  0.14091941  0.14150156     0.13100
N1321       N  0.54889323  0.51756201  0.44556728    -0.07700
N1322       N  0.57395920  0.51406294  0.42710537    -0.59800
N1323       N  0.99459969  0.07277826  0.45716443    -0.07400
N1324       N  0.97859469  0.10025989  0.45030434    -0.62000
N1325       N  0.51909551  0.08301541  0.47489162    -0.07000
N1326       N  0.52041495  0.11718752  0.48110303    -0.59800
N1327       N  0.52162073  0.50687719  0.42891797    -0.06700
N1328       N  0.52752224  0.49599621  0.39910060    -0.62300
C1329       C  0.56014861  0.50021397  0.39856743     0.94500
C1330       C  0.49200940  0.12681090  0.46742705     0.94200
N1331       N  0.91660918  0.01757655  0.48881018    -0.07900
N1332       N  0.89357846  0.02793446  0.00279860    -0.60400
N1333       N  0.95309740  0.46249228  0.43458830    -0.06000
N1334       N  0.94190557  0.44868265  0.40569587    -0.61700
N1335       N  0.93924235  0.44527287  0.45883406    -0.07900
N1336       N  0.91816763  0.41944979  0.44646280    -0.60700
N1337       N  0.92918425  0.03102704  0.46229646    -0.05700
N1338       N  0.91457633  0.05850933  0.45279800    -0.61700
Mn1339     Mn  0.97526254  0.01842368  0.44547072     1.18400
C1340       C  0.89215385  0.06150392  0.47524673     0.96600
C1341       C  0.91995712  0.42179505  0.41306823     0.97200
N1342       N  0.55840139  0.06819335  0.04913145    -0.07900
N1343       N  0.58027697  0.09353562  0.06084890    -0.64300
N1344       N  0.56747620  0.48347156  0.04223984    -0.06700
N1345       N  0.58410908  0.45736609  0.05155105    -0.64900
N1346       N  0.57575673  0.50078001  0.51673661    -0.07400
N1347       N  0.59802759  0.48155432  0.50506218    -0.64500
N1348       N  0.54605145  0.05026180  0.07378533    -0.06300
N1349       N  0.55988742  0.06268371  0.10226367    -0.65200
Mn1350     Mn  0.55137427  0.04493480  0.49377438     1.10700
C1351       C  0.58066518  0.09045273  0.09425776     0.97800
C1352       C  0.60680877  0.45677805  0.02907745     0.97800
N1353       N  0.97664501  0.43230357  0.03403651    -0.07500
N1354       N  0.97524009  0.39818782  0.02718657    -0.62800
N1355       N  0.97489733  0.00251484  0.07864749    -0.06800
N1356       N  0.97017260  0.01190980  0.10916118    -0.59600
N1357       N  0.94713156  0.99151864  0.06290553    -0.08100
N1358       N  0.92287248  0.99333102  0.08286812    -0.62400
N1359       N  0.00377397  0.44217998  0.05141144    -0.07100
N1360       N  0.52078614  0.41339487  0.05490243    -0.59600
Mn1361     Mn  0.94506157  0.47177003  0.01491021     1.20200
Mn1362     Mn  0.52184384  0.49449243  0.06092950     1.10100
Cl1363     Cl  0.99626566  0.00850508  0.50356558    -0.87600
C1364       C  0.00346526  0.38814333  0.04102234     0.94800
C1365       C  0.93785366  0.00612752  0.11130960     0.94600
N1366       N  0.80359897  0.20792669  0.51484159    -0.07700
N1367       N  0.81641625  0.17876087  0.50743453    -0.59800
N1368       N  0.79914710  0.26959942  0.06889335    -0.07400
N1369       N  0.80753899  0.28848791  0.09589899    -0.62000
N1370       N  0.77992863  0.24178398  0.07664369    -0.07000
N1371       N  0.77520823  0.24136937  0.10841405    -0.59800
N1372       N  0.82237574  0.23541360  0.50548876    -0.06700
N1373       N  0.84850477  0.22521475  0.49165665    -0.62300
C1374       C  0.84389291  0.18991350  0.49307215     0.94500
C1375       C  0.79224837  0.27063267  0.12026907     0.94200
N1376       N  0.77096861  0.34747784  0.00886404    -0.07900
N1377       N  0.76450142  0.37941163  0.01819522    -0.60400
N1378       N  0.81995042  0.30357516  0.45723999    -0.06000
N1379       N  0.84772676  0.31211594  0.44187997    -0.61700
N1380       N  0.79504158  0.31222827  0.43859408    -0.07900
N1381       N  0.80554824  0.32694723  0.41077275    -0.60700
N1382       N  0.79576489  0.33717083  0.02633975    -0.05700
N1383       N  0.80675562  0.36180496  0.04820243    -0.61700
Mn1384     Mn  0.81096917  0.28390277  0.01685387     1.18400
C1385       C  0.78711710  0.38828462  0.04282389     0.96600
C1386       C  0.83878993  0.32634809  0.41210349     0.97200
N1387       N  0.70920084  0.20286529  0.06685205    -0.07900
N1388       N  0.70138898  0.18494003  0.09359114    -0.64300
N1389       N  0.70960425  0.17729582  0.48252010    -0.06700
N1390       N  0.69945975  0.15126288  0.46187598    -0.64900
N1391       N  0.73467075  0.16906711  0.50080955    -0.07400
N1392       N  0.74215449  0.13698579  0.49327638    -0.64500
N1393       N  0.68284166  0.21123397  0.05037677    -0.06300
N1394       N  0.65642158  0.19820472  0.06613363    -0.65200
Mn1395     Mn  0.75662567  0.20355473  0.04169962     1.10700
C1396       C  0.66829453  0.18211515  0.09395007     0.97800
C1397       C  0.71984245  0.12597615  0.46891435     0.97800
N1398       N  0.72520643  0.26883955  0.42863212    -0.07500
N1399       N  0.73233008  0.26695799  0.39762101    -0.62800
N1400       N  0.68156097  0.28473583  0.00644296    -0.06800
N1401       N  0.65681207  0.29604188  0.02198940    -0.59600
N1402       N  0.70123456  0.31168820  0.99731526    -0.08100
N1403       N  0.69071711  0.34129911  0.00713004    -0.62400
N1404       N  0.70592323  0.24125456  0.43684155    -0.07100
N1405       N  0.69965303  0.22043711  0.41067871    -0.59600
Mn1406     Mn  0.74486903  0.31066020  0.46124486     1.20200
Mn1407     Mn  0.69199219  0.22930458  0.48868472     1.10100
Cl1408     Cl  0.75151734  0.25728242  0.00659157    -0.87600
C1409       C  0.71641364  0.23685676  0.38644723     0.94800
C1410       C  0.66360821  0.33127920  0.02252970     0.94600
N1411       N  0.93996293  0.25172414  0.20084483    -0.07700
N1412       N  0.90897367  0.24148903  0.19334647    -0.59800
N1413       N  0.00615207  0.29961443  0.17950633    -0.07400
N1414       N  0.51940107  0.32138748  0.16088732    -0.62000
N1415       N  0.00586629  0.26666589  0.16912605    -0.07000
N1416       N  0.52014007  0.26584620  0.14329207    -0.59800
N1417       N  0.94176289  0.28391945  0.21334667    -0.06700
N1418       N  0.91302302  0.29589749  0.21496698    -0.62300
C1419       C  0.89269798  0.26954012  0.20255334     0.94500
C1420       C  0.52740308  0.29966646  0.13615178     0.94200
N1421       N  0.54737800  0.32939396  0.27662979    -0.07900
N1422       N  0.57930154  0.33449353  0.27493720    -0.60400
N1423       N  0.96263860  0.32494263  0.27869500    -0.06000
N1424       N  0.93430585  0.33754706  0.28643305    -0.61700
N1425       N  0.97792401  0.31522613  0.30575025    -0.07900
N1426       N  0.96017764  0.32103873  0.33195649    -0.60700
N1427       N  0.53298967  0.33873920  0.24899105    -0.05700
N1428       N  0.55507286  0.35002232  0.22820303    -0.61700
Mn1429     Mn  0.98553750  0.31393046  0.22836950     1.18400
C1430       C  0.58388559  0.34734611  0.24461053     0.96600
C1431       C  0.93232793  0.33506135  0.32013126     0.97200
N1432       N  0.53368975  0.19500189  0.19265684    -0.07900
N1433       N  0.55112781  0.18612142  0.16703313    -0.64300
N1434       N  0.98238381  0.17211791  0.25258237    -0.06700
N1435       N  0.96293359  0.15820542  0.27458182    -0.64900
N1436       N  0.96545230  0.18181029  0.22655962    -0.07400
N1437       N  0.93405479  0.17537331  0.23079679    -0.64500
N1438       N  0.54821392  0.18599904  0.22031178    -0.06300
N1439       N  0.57538318  0.17101880  0.21413856    -0.65200
Mn1440     Mn  0.98554689  0.22302011  0.19526058     1.10700
C1441       C  0.57760993  0.17102409  0.18072769     0.97800
C1442       C  0.93306999  0.16050019  0.26063965     0.97800
N1443       N  0.50548414  0.24126679  0.32916081    -0.07500
N1444       N  0.99927671  0.24619175  0.35704395    -0.62800
N1445       N  0.57018977  0.22722731  0.28495311    -0.06800
N1446       N  0.59909475  0.21543423  0.28462013    -0.59600
N1447       N  0.57110617  0.25853767  0.29923039    -0.08100
N1448       N  0.60147378  0.26831065  0.30939377    -0.62400
N1449       N  0.50638642  0.20881062  0.31787359    -0.07100
N1450       N  0.00084165  0.19066573  0.33890521    -0.59600
Mn1451     Mn  0.52534836  0.28633747  0.30467298     1.20200
Mn1452     Mn  0.52670960  0.19697533  0.26918799     1.10100
Cl1453     Cl  0.00645939  0.25681113  0.24762417    -0.87600
C1454       C  0.99412811  0.21212033  0.36413718     0.94800
C1455       C  0.61840451  0.24097467  0.29989817     0.94600
N1456       N  0.79036524  0.43418215  0.30237780    -0.07700
N1457       N  0.80201628  0.40546662  0.31585122    -0.59800
N1458       N  0.76973965  0.00572375  0.34044752    -0.07400
N1459       N  0.76933934  0.02601875  0.36678298    -0.62000
N1460       N  0.74492565  0.98194866  0.33895343    -0.07000
N1461       N  0.72636402  0.98616947  0.36441249    -0.59800
N1462       N  0.81361474  0.46006045  0.30335741    -0.06700
N1463       N  0.84099008  0.44927331  0.31741611    -0.62300
C1464       C  0.83404077  0.41481964  0.32515935     0.94500
C1465       C  0.74257559  0.01340699  0.38189835     0.94200
N1466       N  0.77710557  0.08631327  0.27077154    -0.07900
N1467       N  0.79151557  0.11857931  0.27258514    -0.60400
N1468       N  0.82743216  0.52755651  0.25447101    -0.06000
N1469       N  0.85785471  0.52112984  0.24936612    -0.61700
N1470       N  0.81512048  0.54418690  0.22913883    -0.07900
N1471       N  0.83672018  0.54972478  0.20679258    -0.60700
N1472       N  0.78521065  0.06961662  0.29791730    -0.05700
N1473       N  0.80157741  0.09144374  0.31901096    -0.61700
Mn1474     Mn  0.80006448  0.01500546  0.29901703     1.18400
C1475       C  0.80808879  0.12087400  0.30224945     0.96600
C1476       C  0.86315434  0.53585104  0.21977686     0.97200
N1477       N  0.68818072  0.96369508  0.28615897    -0.07900
N1478       N  0.66674930  0.96272566  0.30914203    -0.64300
N1479       N  0.71812144  0.43543803  0.21810294    -0.06700
N1480       N  0.70557340  0.41185645  0.19628157    -0.64900
N1481       N  0.72850424  0.41975386  0.24500782    -0.07400
N1482       N  0.72136096  0.38540284  0.24174532    -0.64500
N1483       N  0.67673775  0.97934768  0.25976042    -0.06300
N1484       N  0.64745706  0.98941106  0.26443183    -0.65200
Mn1485     Mn  0.73733270  0.44910697  0.29254047     1.10700
C1486       C  0.64164023  0.97831942  0.29504549     0.97800
C1487       C  0.70663895  0.38062144  0.21122721     0.97800
N1488       N  0.75919030  0.52566741  0.17655070    -0.07500
N1489       N  0.77768685  0.52424111  0.15077676    -0.62800
N1490       N  0.69082118  0.04584333  0.21157106    -0.06800
N1491       N  0.66447014  0.05601900  0.19513218    -0.59600
N1492       N  0.71388603  0.07192847  0.21357969    -0.08100
N1493       N  0.70314753  0.09996177  0.19818883    -0.62400
N1494       N  0.73556064  0.50049936  0.17432312    -0.07100
N1495       N  0.73673273  0.48195211  0.14693282    -0.59600
Mn1496     Mn  0.76657498  0.05754368  0.22325289     1.20200
Mn1497     Mn  0.70422898  0.49034386  0.21519142     1.10100
Cl1498     Cl  0.75248828  0.00254790  0.25810354    -0.87600
C1499       C  0.76274016  0.49728954  0.13213570     0.93400
C1500       C  0.67173550  0.09029013  0.18709179     0.94600
C1501       C  0.84993992  0.16930176  0.29260998    -0.10700
C1502       C  0.84247921  0.13482373  0.30286239     0.05500
C1503       C  0.86794371  0.11147207  0.30530695    -0.04500
C1504       C  0.89781445  0.12120038  0.29240653    -0.09000
C1505       C  0.90352528  0.15394458  0.27849487     0.04600
C1506       C  0.88087233  0.17933286  0.28161279    -0.04000
Br1507     Br  0.89210442  0.22806568  0.27396181    -0.03700
H1508       H  0.83143431  0.18792791  0.29200369     0.08500
H1509       H  0.91619936  0.10241139  0.29177421     0.06500
Br1510     Br  0.86471905  0.06448323  0.32248334    -0.04100
C1511       C  0.65225976  0.36529426  0.18588022    -0.10700
C1512       C  0.67849028  0.35421726  0.20531090     0.05500
C1513       C  0.67126988  0.32996604  0.22999836    -0.04500
C1514       C  0.64005339  0.32748676  0.24244579    -0.09000
C1515       C  0.61533677  0.34684360  0.22835493     0.04600
C1516       C  0.62102118  0.36345596  0.19800628    -0.04000
Br1517     Br  0.58917899  0.38844916  0.17410455    -0.03700
H1518       H  0.65692628  0.38141854  0.16447021     0.08500
H1519       H  0.63525600  0.31088940  0.26349439     0.06500
Br1520     Br  0.70430318  0.30167045  0.24685809    -0.04100
C1521       C  0.76683727  0.44736145  0.05297094    -0.10700
C1522       C  0.78765936  0.42149300  0.06300902     0.05500
C1523       C  0.80611000  0.42714068  0.09322530    -0.04500
C1524       C  0.80085236  0.45576568  0.11377489    -0.09000
C1525       C  0.77740120  0.47897958  0.10514692     0.04600
C1526       C  0.76163275  0.47582158  0.07377374    -0.04000
Br1527     Br  0.73149781  0.50887080  0.05928980    -0.03700
H1528       H  0.75322158  0.44460022  0.02955906     0.08500
H1529       H  0.81296205  0.45795545  0.13805205     0.06500
Br1530     Br  0.83643666  0.39558695  0.11029310    -0.04100
C1531       C  0.70257180  0.05125404  0.40477054    -0.10700
C1532       C  0.73056748  0.03310726  0.40977828     0.05500
C1533       C  0.75181534  0.04245161  0.43710093    -0.04500
C1534       C  0.74642977  0.07123470  0.45720214    -0.09000
C1535       C  0.72035467  0.09199580  0.45030772     0.04600
C1536       C  0.69736421  0.08073120  0.42444088    -0.04000
Br1537     Br  0.65961357  0.10513036  0.41264292    -0.03700
H1538       H  0.68617736  0.04438333  0.38374672     0.08500
H1539       H  0.76407049  0.07857506  0.47721318     0.06500
Br1540     Br  0.79013341  0.01821304  0.44642706    -0.04100
C1541       C  0.68801903  0.20061130  0.34290946    -0.10700
C1542       C  0.70715059  0.23151138  0.35150122     0.05500
C1543       C  0.70360142  0.26177734  0.33250724    -0.04500
C1544       C  0.67425187  0.26457054  0.31506026    -0.09000
C1545       C  0.65154897  0.23550364  0.31152817     0.04600
C1546       C  0.66012941  0.20219301  0.32261196    -0.04000
Br1547     Br  0.63281560  0.15900908  0.31685986    -0.03700
H1548       H  0.69173800  0.17658008  0.35598909     0.08500
H1549       H  0.66859438  0.28989895  0.30559301     0.06500
Br1550     Br  0.73515498  0.30189692  0.33364221    -0.04100
C1551       C  0.81991285  0.30726624  0.16422419    -0.10700
C1552       C  0.80217210  0.27562016  0.15524260     0.05500
C1553       C  0.80667687  0.24571537  0.17446320    -0.04500
C1554       C  0.83603870  0.24427753  0.19254764    -0.09000
C1555       C  0.85827958  0.27396342  0.19469196     0.04600
C1556       C  0.84787527  0.30690866  0.18462181    -0.04000
Br1557     Br  0.87211088  0.35164842  0.19302929    -0.03700
H1558       H  0.81483334  0.33124922  0.15173462     0.08500
H1559       H  0.84224727  0.21966225  0.20319697     0.06500
Br1560     Br  0.77582856  0.20520053  0.17394515    -0.04100
C1561       C  0.85856632  0.14642981  0.45468245    -0.10700
C1562       C  0.86635972  0.16520793  0.48407997     0.05500
C1563       C  0.88337709  0.15004680  0.51012996    -0.04500
C1564       C  0.88913697  0.11476714  0.50804694    -0.09000
C1565       C  0.87927955  0.09514960  0.47948268     0.04600
C1566       C  0.86538712  0.11150942  0.45205134    -0.04000
Br1567     Br  0.85436914  0.08691224  0.41102592    -0.03700
H1568       H  0.84472813  0.15797794  0.43488314     0.08500
H1569       H  0.90210821  0.10292652  0.52833550     0.06500
Br1570     Br  0.89607156  0.17616401  0.55001527    -0.04100
C1571       C  0.61159529  0.40061797  0.00217442    -0.10700
C1572       C  0.62386616  0.42569164  0.02594698     0.05500
C1573       C  0.64389199  0.41615746  0.05260233    -0.04500
C1574       C  0.65288376  0.38196311  0.05434450    -0.09000
C1575       C  0.64167540  0.35719033  0.02991596     0.04600
C1576       C  0.62019352  0.36622610  0.00421623    -0.04000
Br1577     Br  0.60492800  0.33327207  0.96966423    -0.03700
H1578       H  0.59451318  0.40750323  0.98274514     0.08500
H1579       H  0.67055357  0.37536532  0.07338294     0.06500
Br1580     Br  0.65982727  0.44933142  0.08668779    -0.04100
C1581       C  0.59980823  0.02703331  0.35728978    -0.10700
C1582       C  0.57757928  0.49664071  0.36866022     0.05500
C1583       C  0.57308940  0.46575514  0.34916983    -0.04500
C1584       C  0.59187835  0.46244207  0.32191755    -0.09000
C1585       C  0.61549561  0.98900562  0.31405423     0.04600
C1586       C  0.61912417  0.02159118  0.33084140    -0.04000
Br1587     Br  0.65216129  0.05770133  0.32042536    -0.03700
H1588       H  0.60341914  0.05154260  0.37128136     0.08500
H1589       H  0.59054343  0.43754584  0.30850240     0.06500
Br1590     Br  0.54495998  0.42578753  0.36098683    -0.04100
C1591       C  0.89704958  0.49646704  0.19192917    -0.10700
C1592       C  0.89049386  0.53101454  0.19963890     0.05500
C1593       C  0.90459648  0.05368795  0.18096843    -0.04500
C1594       C  0.92078428  0.04658805  0.15272049    -0.09000
C1595       C  0.92181427  0.01194310  0.14161955     0.04600
C1596       C  0.91298750  0.48945708  0.16334251    -0.04000
Br1597     Br  0.91829086  0.44139384  0.15164567    -0.03700
H1598       H  0.88702678  0.47474557  0.20621224     0.08500
H1599       H  0.93124897  0.06818243  0.13853035     0.06500
Br1600     Br  0.89992180  0.10197529  0.19226071    -0.04100
C1601       C  0.49467743  0.30557402  0.08575525    -0.10700
C1602       C  0.52547827  0.31007164  0.10194827     0.05500
C1603       C  0.55143676  0.32791094  0.08655197    -0.04500
C1604       C  0.04445943  0.34866822  0.05761193    -0.09000
C1605       C  0.01201283  0.35206942  0.04627894     0.04600
C1606       C  0.98764686  0.32607860  0.05428513    -0.04000
Br1607     Br  0.94364561  0.32435495  0.03647409    -0.03700
H1608       H  0.47504580  0.28982551  0.09668760     0.08500
H1609       H  0.06387674  0.36717362  0.05015551     0.06500
Br1610     Br  0.59535454  0.32907229  0.10438832    -0.04100
C1611       C  0.51257035  0.20292534  0.42227760    -0.10700
C1612       C  0.99092217  0.20066453  0.39755343     0.05500
C1613       C  0.96186741  0.18361855  0.40757137    -0.04500
C1614       C  0.96184730  0.16714501  0.43785306    -0.09000
C1615       C  0.48528785  0.16277150  0.45893036     0.04600
C1616       C  0.51189415  0.18674836  0.45277935    -0.04000
Br1617     Br  0.54945395  0.19399990  0.48249698    -0.03700
H1618       H  0.53429191  0.21835223  0.41556626     0.08500
H1619       H  0.94018428  0.15094506  0.44395470     0.06500
Br1620     Br  0.92351587  0.17790121  0.37879851    -0.04100
C1621       C  0.90284985  0.35217677  0.84794490     0.84900
C1622       C  0.92060555  0.37976253  0.87163496    -0.55300
C1623       C  0.90175626  0.39744328  0.89199391     0.07800
C1624       C  0.86401460  0.38668051  0.88518708     0.18800
C1625       C  0.88123835  0.32835658  0.87179485    -0.56100
C1626       C  0.86044143  0.34568695  0.89182993     0.07900
C1627       C  0.87756217  0.37321076  0.82832593    -0.55600
C1628       C  0.85678852  0.39175080  0.84642196     0.08500
H1629       H  0.94700844  0.38415468  0.87300760     0.13000
H1630       H  0.84841080  0.40173136  0.90082192    -0.01200
H1631       H  0.88276984  0.30012915  0.87286947     0.13300
H1632       H  0.87677909  0.37400946  0.80161505     0.13100
C1633       C  0.64581854  0.11462738  0.65767539     0.84900
C1634       C  0.62355688  0.13788462  0.67649107    -0.55300
C1635       C  0.60299566  0.15763635  0.65791669     0.07800
C1636       C  0.60913937  0.15338077  0.61934654     0.18800
C1637       C  0.62169989  0.09333350  0.63317500    -0.56100
C1638       C  0.60241980  0.11269244  0.61298110     0.07900
C1639       C  0.66515435  0.14082125  0.63510950    -0.55600
C1640       C  0.64738866  0.16122306  0.61386886     0.08500
H1641       H  0.62263914  0.13658427  0.70311979     0.13000
H1642       H  0.59341797  0.16901151  0.60336577    -0.01200
H1643       H  0.61980642  0.06474627  0.63211327     0.13300
H1644       H  0.69153153  0.14175498  0.63508255     0.13100
N1645       N  0.54989365  0.51355136  0.94547948    -0.07700
N1646       N  0.57444772  0.50599562  0.92759143    -0.59800
N1647       N  0.99383497  0.06936640  0.95882149    -0.07400
N1648       N  0.97761393  0.09698214  0.95294859    -0.62000
N1649       N  0.52310053  0.08146940  0.97794739    -0.07000
N1650       N  0.52567860  0.11603150  0.98199439    -0.59800
N1651       N  0.52210389  0.50381278  0.92933494    -0.06700
N1652       N  0.52701284  0.48975907  0.90047405    -0.62300
C1653       C  0.55957127  0.49083175  0.90002438     0.94500
C1654       C  0.49825050  0.12606267  0.96651838     0.94200
N1655       N  0.91779149  0.01077053  0.99215713    -0.07900
N1656       N  0.89337335  0.03658337  0.49871750    -0.60400
N1657       N  0.95371897  0.46262637  0.93907050    -0.06000
N1658       N  0.94195702  0.44893607  0.91027540    -0.61700
N1659       N  0.93926199  0.44633202  0.96344412    -0.07900
N1660       N  0.91721775  0.42125669  0.95127244    -0.60700
N1661       N  0.92936912  0.02581508  0.96583399    -0.05700
N1662       N  0.91315616  0.05244517  0.95714502    -0.61700
Mn1663     Mn  0.97489344  0.01503890  0.94660233     1.18400
C1664       C  0.89075313  0.05327280  0.97988489     0.96600
C1665       C  0.91896274  0.42306875  0.91779911     0.97200
N1666       N  0.55523201  0.07054259  0.54450693    -0.07900
N1667       N  0.57650166  0.09664699  0.55575727    -0.64300
N1668       N  0.56364183  0.48621158  0.54302486    -0.06700
N1669       N  0.57771373  0.45758488  0.55048295    -0.64900
N1670       N  0.57908660  0.49821030  0.01586615    -0.07400
N1671       N  0.60380279  0.48156059  0.00576292    -0.64500
N1672       N  0.54303387  0.05298150  0.56937237    -0.06300
N1673       N  0.55632151  0.06645353  0.59765626    -0.65200
Mn1674     Mn  0.55454632  0.04287348  0.99787397     1.10700
C1675       C  0.57659924  0.09445941  0.58920015     0.97800
C1676       C  0.59929474  0.45511078  0.52698997     0.97800
N1677       N  0.97603070  0.43236610  0.52980852    -0.07500
N1678       N  0.97521084  0.39812275  0.52377684    -0.62800
N1679       N  0.97093123  0.01096274  0.57726269    -0.06800
N1680       N  0.96571156  0.02338325  0.60669758    -0.59600
N1681       N  0.94324727  0.00141225  0.56076654    -0.08100
N1682       N  0.91854562  0.00726150  0.57916106    -0.62400
N1683       N  0.00289805  0.44320455  0.54714717    -0.07100
N1684       N  0.51488145  0.41844211  0.55475534    -0.59600
Mn1685     Mn  0.94334259  0.47039335  0.51031248     1.20200
Mn1686     Mn  0.51788433  0.49968188  0.56093824     1.10100
Cl1687     Cl  0.99807244  0.00410773  0.00372095    -0.87600
C1688       C  0.00364300  0.38898194  0.53790255     0.94800
C1689       C  0.93313751  0.02138479  0.60733503     0.94600
N1690       N  0.80196494  0.20243211  0.01702673    -0.07700
N1691       N  0.81244422  0.17252069  0.00808250    -0.59800
N1692       N  0.79620386  0.27614464  0.56348909    -0.07400
N1693       N  0.80555179  0.29458296  0.59050736    -0.62000
N1694       N  0.77743934  0.24812134  0.57151283    -0.07000
N1695       N  0.77376845  0.24719750  0.60338930    -0.59800
N1696       N  0.82188459  0.22912094  0.00796337    -0.06700
N1697       N  0.84682283  0.21730802  0.99302809    -0.62300
C1698       C  0.83985894  0.18204127  0.99309960     0.94500
C1699       C  0.79113846  0.27623332  0.61512730     0.94200
N1700       N  0.76600482  0.34957148  0.49835135    -0.07900
N1701       N  0.75801682  0.38144379  0.50606621    -0.60400
N1702       N  0.82030058  0.30129682  0.96261718    -0.06000
N1703       N  0.84746981  0.31031496  0.94639621    -0.61700
N1704       N  0.79499820  0.31209437  0.94585723    -0.07900
N1705       N  0.80463533  0.32878087  0.91867254    -0.60700
N1706       N  0.79066205  0.34117509  0.51726249    -0.05700
N1707       N  0.80007653  0.36699749  0.53838490    -0.61700
Mn1708     Mn  0.80869225  0.28892188  0.51139403     1.18400
C1709       C  0.77976508  0.39228169  0.53096687     0.96600
C1710       C  0.83768871  0.32726671  0.91825475     0.97200
N1711       N  0.70767011  0.20600112  0.56101822    -0.07900
N1712       N  0.69944130  0.18879586  0.58814524    -0.64300
N1713       N  0.70710945  0.17752509  0.98657558    -0.06700
N1714       N  0.69584420  0.15307391  0.96465780    -0.64900
N1715       N  0.73212274  0.16725471  0.00373492    -0.07400
N1716       N  0.73844467  0.13537261  0.99406983    -0.64500
N1717       N  0.68146544  0.21279012  0.54326391    -0.06300
N1718       N  0.65487951  0.19934143  0.55866539    -0.65200
Mn1719     Mn  0.75658581  0.20781845  0.53762711     1.10700
C1720       C  0.66626704  0.18470447  0.58758071     0.97800
C1721       C  0.71551761  0.12659229  0.96961158     0.97800
N1722       N  0.72259400  0.27279612  0.93699417    -0.07500
N1723       N  0.72686099  0.27259270  0.90513561    -0.62800
N1724       N  0.67790745  0.28366049  0.49297655    -0.06800
N1725       N  0.65031939  0.29419263  0.50350842    -0.59600
N1726       N  0.69643823  0.31082017  0.48227429    -0.08100
N1727       N  0.68177060  0.33984289  0.48526442    -0.62400
N1728       N  0.70335428  0.24519939  0.94531466    -0.07100
N1729       N  0.69467947  0.22581286  0.91880751    -0.59600
Mn1730     Mn  0.74656449  0.31127597  0.97133562     1.20200
Mn1731     Mn  0.69193844  0.23020976  0.99679356     1.10100
Cl1732     Cl  0.75030731  0.25942516  0.49995567    -0.87600
C1733       C  0.70967767  0.24304990  0.89404208     0.94800
C1734       C  0.65337454  0.32915718  0.49816470     0.94600
N1735       N  0.93829327  0.25475991  0.70185962    -0.07700
N1736       N  0.90799678  0.24535055  0.69126961    -0.59800
N1737       N  0.00367652  0.30376807  0.68514369    -0.07400
N1738       N  0.51070684  0.32583174  0.65695047    -0.62000
N1739       N  0.00475479  0.27140834  0.67348183    -0.07000
N1740       N  0.51234515  0.27051967  0.63858962    -0.59800
N1741       N  0.93921471  0.28579784  0.71665589    -0.06700
N1742       N  0.91044550  0.29790418  0.71676157    -0.62300
C1743       C  0.89120241  0.27270789  0.70094832     0.94500
C1744       C  0.51733417  0.30455168  0.63138119     0.94200
N1745       N  0.54281599  0.33222379  0.77419370    -0.07900
N1746       N  0.57468061  0.33776019  0.77249720    -0.60400
N1747       N  0.95884604  0.32381673  0.78420560    -0.06000
N1748       N  0.93115305  0.33762917  0.79199534    -0.61700
N1749       N  0.97360515  0.31294746  0.81106932    -0.07900
N1750       N  0.95609472  0.31917728  0.83732106    -0.60700
N1751       N  0.52826213  0.34176488  0.74669394    -0.05700
N1752       N  0.55015625  0.35368390  0.72597528    -0.61700
Mn1753     Mn  0.98230102  0.31494246  0.73429748     1.18400
C1754       C  0.57899534  0.35123696  0.74240403     0.96600
C1755       C  0.92902013  0.33466882  0.82556896     0.97200
N1756       N  0.53134806  0.19910268  0.68866456    -0.07900
N1757       N  0.54862489  0.19036132  0.66280179    -0.64300
N1758       N  0.97596024  0.17255306  0.75161154    -0.06700
N1759       N  0.95463832  0.15917276  0.77217989    -0.64900
N1760       N  0.96087923  0.18374855  0.72503467    -0.07400
N1761       N  0.92902265  0.17874889  0.72745392    -0.64500
N1762       N  0.54614428  0.18995559  0.71616389    -0.06300
N1763       N  0.57331803  0.17504633  0.70954173    -0.65200
Mn1764     Mn  0.98356362  0.22612080  0.69676008     1.10700
C1765       C  0.57534388  0.17520375  0.67603917     0.97800
C1766       C  0.92565112  0.16336293  0.75685014     0.97800
N1767       N  0.50205895  0.24313143  0.82615575    -0.07500
N1768       N  0.99109102  0.24129680  0.85937459    -0.62800
N1769       N  0.56777000  0.23077718  0.78206827    -0.06800
N1770       N  0.59684271  0.21914372  0.78345337    -0.59600
N1771       N  0.56772712  0.26181681  0.79675360    -0.08100
N1772       N  0.59745921  0.27161706  0.80878362    -0.62400
N1773       N  0.50387935  0.21091083  0.81464064    -0.07100
N1774       N  0.99294829  0.18632989  0.84024652    -0.59600
Mn1775     Mn  0.52142304  0.28866655  0.80201429     1.20200
Mn1776     Mn  0.52442375  0.20008459  0.76557962     1.10100
Cl1777     Cl  0.00270029  0.25645854  0.75123569    -0.87600
C1778       C  0.98546922  0.20710729  0.86578025     0.94800
C1779       C  0.61516088  0.24469727  0.80002776     0.94600
N1780       N  0.78943060  0.43396068  0.80243423    -0.07700
N1781       N  0.80061705  0.40595216  0.81772567    -0.59800
N1782       N  0.76316472  0.00684927  0.83801982    -0.07400
N1783       N  0.76216480  0.02785047  0.86384897    -0.62000
N1784       N  0.73864791  0.98267048  0.83685473    -0.07000
N1785       N  0.71974620  0.98731577  0.86199837    -0.59800
N1786       N  0.81247519  0.46007036  0.80367041    -0.06700
N1787       N  0.83924274  0.44998853  0.81971833    -0.62300
C1788       C  0.83212876  0.41581871  0.82861702     0.94500
C1789       C  0.73534987  0.01529855  0.87896591     0.94200
N1790       N  0.76973306  0.08537056  0.76599598    -0.07900
N1791       N  0.78287528  0.11815036  0.76712173    -0.60400
N1792       N  0.82531596  0.52582441  0.75142392    -0.06000
N1793       N  0.85567929  0.51917897  0.74609408    -0.61700
N1794       N  0.81245777  0.54110819  0.72548113    -0.07900
N1795       N  0.83357309  0.54543788  0.70254076    -0.60700
N1796       N  0.77823728  0.06971090  0.79358668    -0.05700
N1797       N  0.79375175  0.09265157  0.81422993    -0.61700
Mn1798     Mn  0.79379359  0.01536508  0.79636326     1.18400
C1799       C  0.79934838  0.12180474  0.79676700     0.96600
C1800       C  0.86025094  0.53224464  0.71567977     0.97200
N1801       N  0.68223460  0.96216583  0.78407922    -0.07900
N1802       N  0.66052181  0.95776262  0.80652172    -0.64300
N1803       N  0.71713367  0.43515316  0.71693568    -0.06700
N1804       N  0.70497870  0.41234950  0.69436970    -0.64900
N1805       N  0.72683233  0.41874413  0.74371027    -0.07400
N1806       N  0.71818736  0.38464609  0.73988535    -0.64500
N1807       N  0.66999410  0.97814419  0.75819316    -0.06300
N1808       N  0.63965086  0.98504102  0.76296370    -0.65200
Mn1809     Mn  0.73636262  0.44819799  0.79143855     1.10700
C1810       C  0.63429610  0.97176721  0.79308904     0.97800
C1811       C  0.70385591  0.38094324  0.70900667     0.97800
N1812       N  0.75559795  0.52239349  0.67344525    -0.07500
N1813       N  0.77255267  0.52030877  0.64656043    -0.62800
N1814       N  0.68416804  0.04551384  0.70693654    -0.06800
N1815       N  0.65856299  0.05659078  0.68962815    -0.59600
N1816       N  0.70790292  0.07088577  0.70878321    -0.08100
N1817       N  0.69847062  0.09919104  0.69284178    -0.62400
N1818       N  0.73125518  0.49811016  0.67239445    -0.07100
N1819       N  0.73044610  0.47929824  0.64496408    -0.59600
Mn1820     Mn  0.75981333  0.05537827  0.71927858     1.20200
Mn1821     Mn  0.70130278  0.48926722  0.71433533     1.10100
Cl1822     Cl  0.74595089  0.00171316  0.75556800    -0.87600
C1823       C  0.75601373  0.49354914  0.62880634     0.93400
C1824       C  0.66711086  0.09071534  0.68118649     0.94600
C1825       C  0.84010818  0.17060850  0.78486530    -0.10700
C1826       C  0.83343642  0.13672506  0.79688579     0.05500
C1827       C  0.85953169  0.11439563  0.80076776    -0.04500
C1828       C  0.88922489  0.12403932  0.78745426    -0.09000
C1829       C  0.89468240  0.15634162  0.77257560     0.04600
C1830       C  0.87115718  0.18108337  0.77431718    -0.04000
Br1831     Br  0.88157259  0.23002632  0.76788683    -0.03700
H1832       H  0.82112761  0.18865771  0.78331734     0.08500
H1833       H  0.90811297  0.10579907  0.78819163     0.06500
Br1834     Br  0.85786446  0.06940042  0.82200583    -0.04100
C1835       C  0.64771170  0.37339046  0.68575854    -0.10700
C1836       C  0.67334239  0.35792614  0.70289937     0.05500
C1837       C  0.66505525  0.33143856  0.72525414    -0.04500
C1838       C  0.63366528  0.32860629  0.73725821    -0.09000
C1839       C  0.61022651  0.35126038  0.72606143     0.04600
C1840       C  0.61687545  0.37229709  0.69857904    -0.04000
Br1841     Br  0.58743019  0.40477911  0.68115550    -0.03700
H1842       H  0.65291218  0.39197957  0.66628254     0.08500
H1843       H  0.62800321  0.30954446  0.75622221     0.06500
Br1844     Br  0.69674056  0.30052643  0.74032360    -0.04100
C1845       C  0.74867740  0.44168032  0.54947127    -0.10700
C1846       C  0.77787073  0.42498920  0.55104588     0.05500
C1847       C  0.80301300  0.43815593  0.57396872    -0.04500
C1848       C  0.79685337  0.46385815  0.59750330    -0.09000
C1849       C  0.76618954  0.47722494  0.59816971     0.04600
C1850       C  0.74282763  0.46761875  0.57263689    -0.04000
Br1851     Br  0.70193852  0.48840297  0.56923002    -0.03700
H1852       H  0.72947346  0.43321740  0.53137999     0.08500
H1853       H  0.81529993  0.47156574  0.61664965     0.06500
Br1854     Br  0.84604095  0.42217737  0.57487317    -0.04100
C1855       C  0.69770190  0.05717720  0.90014113    -0.10700
C1856       C  0.72288453  0.03523522  0.90659800     0.05500
C1857       C  0.74196266  0.04058320  0.93608093    -0.04500
C1858       C  0.73776395  0.06922536  0.95696749    -0.09000
C1859       C  0.71463845  0.09341546  0.94919604     0.04600
C1860       C  0.69324714  0.08596950  0.92108611    -0.04000
Br1861     Br  0.65876170  0.11463157  0.90817640    -0.03700
H1862       H  0.68297980  0.05355029  0.87735176     0.08500
H1863       H  0.75388551  0.07337679  0.97875594     0.06500
Br1864     Br  0.77539392  0.01026245  0.94788284    -0.04100
C1865       C  0.67944244  0.20592404  0.85237633    -0.10700
C1866       C  0.69968098  0.23652582  0.85935303     0.05500
C1867       C  0.69861490  0.26506867  0.83776618    -0.04500
C1868       C  0.67113229  0.26696599  0.81688978    -0.09000
C1869       C  0.64709726  0.23893511  0.81480797     0.04600
C1870       C  0.65272432  0.20693086  0.83048065    -0.04000
Br1871     Br  0.62217941  0.16597554  0.82912643    -0.03700
H1872       H  0.68126287  0.18309123  0.86767448     0.08500
H1873       H  0.66765647  0.29095117  0.80381772     0.06500
Br1874     Br  0.73188623  0.30337127  0.83782845    -0.04100
C1875       C  0.82101910  0.31123265  0.65883769    -0.10700
C1876       C  0.80284536  0.27988413  0.64963411     0.05500
C1877       C  0.80690561  0.24940801  0.66837939    -0.04500
C1878       C  0.83535868  0.24793030  0.68778265    -0.09000
C1879       C  0.85756035  0.27749590  0.69098189     0.04600
C1880       C  0.84832547  0.31046812  0.68000202    -0.04000
Br1881     Br  0.87405539  0.35442706  0.68766468    -0.03700
H1882       H  0.81674997  0.33535936  0.64611626     0.08500
H1883       H  0.84112110  0.22318693  0.69850465     0.06500
Br1884     Br  0.77738504  0.20768916  0.66566128    -0.04100
C1885       C  0.84996122  0.13335217  0.95802973    -0.10700
C1886       C  0.86086933  0.15545813  0.98466729     0.05500
C1887       C  0.88043934  0.14298545  0.01037917    -0.04500
C1888       C  0.88717916  0.10787004  0.01027305    -0.09000
C1889       C  0.87527877  0.08542088  0.98420741     0.04600
C1890       C  0.85755614  0.09854788  0.95737394    -0.04000
Br1891     Br  0.84342210  0.06984074  0.91939406    -0.03700
H1892       H  0.83378431  0.14254974  0.93882921     0.08500
H1893       H  0.90276604  0.09840471  0.02992247     0.06500
Br1894     Br  0.89576734  0.17251348  0.04742341    -0.04100
C1895       C  0.60674682  0.40660546  0.48867895    -0.10700
C1896       C  0.61234270  0.42163921  0.52025352     0.05500
C1897       C  0.62541136  0.40195554  0.54600842    -0.04500
C1898       C  0.63482827  0.36848521  0.53922418    -0.09000
C1899       C  0.63096878  0.35439653  0.50723782     0.04600
C1900       C  0.61584066  0.37300823  0.48208932    -0.04000
Br1901     Br  0.60918057  0.35422121  0.43800071    -0.03700
H1902       H  0.59511795  0.42092830  0.46913379     0.08500
H1903       H  0.64754347  0.35459388  0.55835874     0.06500
Br1904     Br  0.63305862  0.42049285  0.59013703    -0.04100
C1905       C  0.58836594  0.01903588  0.85263349    -0.10700
C1906       C  0.57605453  0.48339907  0.87038529     0.05500
C1907       C  0.58623292  0.44993477  0.86409298    -0.04500
C1908       C  0.60289141  0.44432983  0.83573244    -0.09000
C1909       C  0.60740532  0.97836209  0.81328575     0.04600
C1910       C  0.60275459  0.01310437  0.82295247    -0.04000
Br1911     Br  0.61899229  0.05328882  0.79885757    -0.03700
H1912       H  0.58544185  0.04575917  0.86073028     0.08500
H1913       H  0.61263739  0.41906795  0.83198133     0.06500
Br1914     Br  0.58006067  0.41224758  0.89465289    -0.04100
C1915       C  0.89438564  0.49415842  0.68643406    -0.10700
C1916       C  0.88786061  0.52829847  0.69564219     0.05500
C1917       C  0.89474008  0.06260095  0.67795634    -0.04500
C1918       C  0.91087425  0.05859103  0.64897425    -0.09000
C1919       C  0.91688135  0.02504378  0.63792184     0.04600
C1920       C  0.90995232  0.48850602  0.65729125    -0.04000
Br1921     Br  0.91665044  0.44112923  0.64433693    -0.03700
H1922       H  0.88478611  0.47178653  0.70014305     0.08500
H1923       H  0.91736689  0.08139854  0.63431465     0.06500
Br1924     Br  0.88220768  0.10870225  0.68893968    -0.04100
C1925       C  0.48706880  0.31007837  0.57876938    -0.10700
C1926       C  0.51656616  0.31557163  0.59740061     0.05500
C1927       C  0.54338705  0.33398030  0.58407390    -0.04500
C1928       C  0.04348679  0.35099697  0.55969524    -0.09000
C1929       C  0.01204715  0.35322025  0.54514574     0.04600
C1930       C  0.98701665  0.32832716  0.55359076    -0.04000
Br1931     Br  0.94650955  0.32118292  0.52838652    -0.03700
H1932       H  0.46701367  0.29340366  0.58784735     0.08500
H1933       H  0.06367362  0.36806540  0.55173962     0.06500
Br1934     Br  0.58544458  0.33720052  0.60643890    -0.04100
C1935       C  0.51716736  0.20086958  0.91596411    -0.10700
C1936       C  0.98580053  0.19562232  0.89948929     0.05500
C1937       C  0.95756388  0.18197878  0.91415086    -0.04500
C1938       C  0.96064808  0.16541911  0.94431475    -0.09000
C1939       C  0.49296058  0.16156693  0.95544078     0.04600
C1940       C  0.51982394  0.18353322  0.94573497    -0.04000
Br1941     Br  0.56162225  0.18655629  0.96889185    -0.03700
H1942       H  0.53864959  0.21491959  0.90641982     0.08500
H1943       H  0.93930256  0.15099014  0.95365697     0.06500
Br1944     Br  0.91543970  0.18164877  0.89209202    -0.04100
C1945       C  0.90604092  0.85104452  0.34531187     0.84900
C1946       C  0.92321068  0.87899499  0.36911003    -0.55300
C1947       C  0.90381594  0.89620375  0.38932716     0.07800
C1948       C  0.86641403  0.88461475  0.38258313     0.18800
C1949       C  0.88461772  0.82680694  0.36913849    -0.56100
C1950       C  0.86344011  0.84377248  0.38911911     0.07900
C1951       C  0.88033505  0.87164654  0.32575095    -0.55600
C1952       C  0.85921744  0.88957170  0.34406600     0.08500
H1953       H  0.94954915  0.88413757  0.37052606     0.13000
H1954       H  0.85048778  0.89934061  0.39814704    -0.01200
H1955       H  0.88640001  0.79861329  0.37007203     0.13300
H1956       H  0.87961994  0.87276223  0.29905681     0.13100
C1957       C  0.64868076  0.61270294  0.15937616     0.84900
C1958       C  0.62611606  0.63585736  0.17777022    -0.55300
C1959       C  0.60511118  0.65469508  0.15882151     0.07800
C1960       C  0.61113119  0.64973493  0.12036235     0.18800
C1961       C  0.62464305  0.59032663  0.13525613    -0.56100
C1962       C  0.60491497  0.60884422  0.11456858     0.07900
C1963       C  0.66745762  0.63855187  0.13643997    -0.55600
C1964       C  0.64929895  0.65815933  0.11501883     0.08500
H1965       H  0.62546785  0.63527641  0.20444965     0.13000
H1966       H  0.59521102  0.66487742  0.10412938    -0.01200
H1967       H  0.62326662  0.56174752  0.13474167     0.13300
H1968       H  0.69386254  0.64006414  0.13652514     0.13100
N1969       N  0.54912826  0.02048329  0.44404497    -0.07700
N1970       N  0.57383018  0.01841612  0.42481902    -0.59800
N1971       N  0.99115649  0.57205176  0.45683945    -0.07400
N1972       N  0.97340017  0.59848582  0.45125648    -0.62000
N1973       N  0.52034355  0.58267416  0.47365021    -0.07000
N1974       N  0.52250548  0.61707413  0.47881267    -0.59800
N1975       N  0.52170255  0.00960623  0.42779339    -0.06700
N1976       N  0.52706378  0.00002486  0.39748014    -0.62300
C1977       C  0.55954997  0.00532534  0.39621089     0.94500
C1978       C  0.49493562  0.62719872  0.46373503     0.94200
N1979       N  0.91635290  0.51253951  0.48909834    -0.07900
N1980       N  0.89762224  0.53544258  0.00467628    -0.60400
N1981       N  0.95235978  0.96402010  0.43624293    -0.06000
N1982       N  0.94241525  0.94893747  0.40747636    -0.61700
N1983       N  0.93710585  0.94816854  0.46041359    -0.07900
N1984       N  0.91633580  0.92201686  0.44815169    -0.60700
N1985       N  0.92770730  0.52692478  0.46243742    -0.05700
N1986       N  0.91168554  0.55362132  0.45354361    -0.61700
Mn1987     Mn  0.97399348  0.51733072  0.44450547     1.18400
C1988       C  0.88966962  0.55544251  0.47655686     0.96600
C1989       C  0.91980754  0.92264260  0.41488029     0.97200
N1990       N  0.55714168  0.56660015  0.04567307    -0.07900
N1991       N  0.57899021  0.59219590  0.05701807    -0.64300
N1992       N  0.56939377  0.98522300  0.04499873    -0.06700
N1993       N  0.58571107  0.95865962  0.05377526    -0.64900
N1994       N  0.57828749  0.00222081  0.51431198    -0.07400
N1995       N  0.60048306  0.98346352  0.50169663    -0.64500
N1996       N  0.54464399  0.54927030  0.07060545    -0.06300
N1997       N  0.55840058  0.56236578  0.09891734    -0.65200
Mn1998     Mn  0.55081321  0.54388482  0.49461949     1.10700
C1999       C  0.57926685  0.58996432  0.09052415     0.97800
C2000       C  0.60818788  0.95786611  0.03108342     0.97800
N2001       N  0.97633198  0.92869947  0.03116571    -0.07500
N2002       N  0.97503911  0.89435484  0.02548466    -0.62800
N2003       N  0.97652323  0.50653332  0.08093467    -0.06800
N2004       N  0.97184447  0.51618504  0.11137831    -0.59600
N2005       N  0.94865928  0.49650266  0.06495279    -0.08100
N2006       N  0.92434824  0.49928773  0.08463471    -0.62400
N2007       N  0.00330693  0.93927622  0.04846778    -0.07100
N2008       N  0.52212720  0.91469508  0.05537604    -0.59600
Mn2009     Mn  0.94392759  0.96747424  0.01240203     1.20200
Mn2010     Mn  0.52349108  0.99575831  0.06341834     1.10100
Cl2011     Cl  0.99713315  0.50758658  0.50183889    -0.87600
C2012       C  0.00330252  0.88497638  0.03984252     0.94800
C2013       C  0.93943115  0.51163076  0.11314710     0.94600
N2014       N  0.80293142  0.70497153  0.51744655    -0.07700
N2015       N  0.81547724  0.67533198  0.51136965    -0.59800
N2016       N  0.79714072  0.77344248  0.06600874    -0.07400
N2017       N  0.80585513  0.79199292  0.09307207    -0.62000
N2018       N  0.77901543  0.74486947  0.07387372    -0.07000
N2019       N  0.77545506  0.74353449  0.10584130    -0.59800
N2020       N  0.82233158  0.73190761  0.50793808    -0.06700
N2021       N  0.84870053  0.72069935  0.49525004    -0.62300
C2022       C  0.84354797  0.68543817  0.49771508     0.94500
C2023       C  0.79200641  0.77313104  0.11767490     0.94200
N2024       N  0.76693711  0.84973382  0.00436176    -0.07900
N2025       N  0.75965445  0.88149689  0.01376016    -0.60400
N2026       N  0.82116217  0.80136393  0.45957758    -0.06000
N2027       N  0.84898832  0.81048416  0.44446190    -0.61700
N2028       N  0.79634868  0.81033231  0.44097399    -0.07900
N2029       N  0.80686667  0.82571975  0.41350342    -0.60700
N2030       N  0.79179700  0.84004936  0.02215082    -0.05700
N2031       N  0.80204148  0.86478249  0.04405484    -0.61700
Mn2032     Mn  0.80922943  0.78770009  0.01403696     1.18400
C2033       C  0.78197589  0.89075769  0.03869074     0.96600
C2034       C  0.84005640  0.82535750  0.41493468     0.97200
N2035       N  0.70922923  0.70307987  0.06248284    -0.07900
N2036       N  0.70116467  0.68519217  0.08921921    -0.64300
N2037       N  0.70920466  0.67548994  0.48355836    -0.06700
N2038       N  0.69910624  0.64910422  0.46318886    -0.64900
N2039       N  0.73384097  0.66718704  0.50246261    -0.07400
N2040       N  0.74106309  0.63483660  0.49567230    -0.64500
N2041       N  0.68292218  0.71076128  0.04543871    -0.06300
N2042       N  0.65638757  0.69732137  0.06081715    -0.65200
Mn2043     Mn  0.75785676  0.70566654  0.03875716     1.10700
C2044       C  0.66800357  0.68166647  0.08900486     0.97800
C2045       C  0.71904632  0.62358677  0.47116862     0.97800
N2046       N  0.72652791  0.76768781  0.42979689    -0.07500
N2047       N  0.73315277  0.76673073  0.39861807    -0.62800
N2048       N  0.67917649  0.78375656  0.00001087    -0.06800
N2049       N  0.65360072  0.79429637  0.01482341    -0.59600
N2050       N  0.69792816  0.81130249  0.99049022    -0.08100
N2051       N  0.68580202  0.84055036  0.99894023    -0.62400
N2052       N  0.70677141  0.74026271  0.43750372    -0.07100
N2053       N  0.69967249  0.72049085  0.41078344    -0.59600
Mn2054     Mn  0.74619336  0.80897119  0.46291757     1.20200
Mn2055     Mn  0.69199986  0.72813026  0.48922341     1.10100
Cl2056     Cl  0.75092782  0.75878296  0.00275293    -0.87600
C2057       C  0.71643215  0.73739599  0.38678176     0.94800
C2058       C  0.65869752  0.82973201  0.01399641     0.94600
N2059       N  0.94197828  0.75132124  0.20123736    -0.07700
N2060       N  0.91153385  0.74146445  0.19121055    -0.59800
N2061       N  0.00842029  0.80008220  0.18314744    -0.07400
N2062       N  0.51840222  0.82116588  0.15703660    -0.62000
N2063       N  0.00907373  0.76741250  0.17234138    -0.07000
N2064       N  0.51800578  0.76524080  0.14004967    -0.59800
N2065       N  0.94303390  0.78293637  0.21496105    -0.06700
N2066       N  0.91416204  0.79485759  0.21502627    -0.62300
C2067       C  0.89470853  0.76910297  0.20018411     0.94500
C2068       C  0.52579727  0.79881000  0.13254048     0.94200
N2069       N  0.54788419  0.83250237  0.27237599    -0.07900
N2070       N  0.57972314  0.83809068  0.27065772    -0.60400
N2071       N  0.96294061  0.82321295  0.28166275    -0.06000
N2072       N  0.93486999  0.83646069  0.28927205    -0.61700
N2073       N  0.97796081  0.81321229  0.30876046    -0.07900
N2074       N  0.96026544  0.81944777  0.33489652    -0.60700
N2075       N  0.53337225  0.84067732  0.24440905    -0.05700
N2076       N  0.55535407  0.85138650  0.22323328    -0.61700
Mn2077     Mn  0.98652333  0.81296172  0.23168886     1.18400
C2078       C  0.58421290  0.84975049  0.23992752     0.96600
C2079       C  0.93278148  0.83407317  0.32295519     0.97200
N2080       N  0.53360224  0.69610022  0.18954822    -0.07900
N2081       N  0.55042575  0.68678250  0.16355548    -0.64300
N2082       N  0.98257136  0.67035242  0.25272454    -0.06700
N2083       N  0.96249426  0.65524649  0.27351359    -0.64900
N2084       N  0.96647770  0.68064626  0.22640603    -0.07400
N2085       N  0.93496000  0.67337847  0.22924194    -0.64500
N2086       N  0.54916204  0.68810550  0.21697481    -0.06300
N2087       N  0.57635621  0.67339076  0.21027841    -0.65200
Mn2088     Mn  0.98761854  0.72294416  0.19674729     1.10700
C2089       C  0.57761097  0.67245492  0.17675568     0.97800
C2090       C  0.93306220  0.65731267  0.25851584     0.97800
N2091       N  0.50819378  0.74448203  0.32642850    -0.07500
N2092       N  0.99634149  0.74308190  0.35856457    -0.62800
N2093       N  0.57216807  0.73094683  0.28065182    -0.06800
N2094       N  0.60110698  0.71921148  0.28069631    -0.59600
N2095       N  0.57287070  0.76219177  0.29503727    -0.08100
N2096       N  0.60307026  0.77190320  0.30573035    -0.62400
N2097       N  0.50922208  0.71199742  0.31529502    -0.07100
N2098       N  0.99744197  0.68766964  0.33995759    -0.59600
Mn2099     Mn  0.52697938  0.78942018  0.30117174     1.20200
Mn2100     Mn  0.52876025  0.69968706  0.26635430     1.10100
Cl2101     Cl  0.00698486  0.75532563  0.25025877    -0.87600
C2102       C  0.99000495  0.70901667  0.36503891     0.94800
C2103       C  0.62017242  0.74465839  0.29639744     0.94600
N2104       N  0.79115014  0.93314122  0.30363013    -0.07700
N2105       N  0.80257024  0.90448945  0.31747064    -0.59800
N2106       N  0.76877770  0.50649340  0.33951265    -0.07400
N2107       N  0.76875990  0.52635948  0.36616501    -0.62000
N2108       N  0.74401148  0.48271143  0.33807518    -0.07000
N2109       N  0.72586755  0.48640756  0.36396485    -0.59800
N2110       N  0.81446134  0.95896722  0.30473666    -0.06700
N2111       N  0.84163229  0.94818266  0.31925489    -0.62300
C2112       C  0.83450211  0.91380036  0.32716696     0.94500
C2113       C  0.74226069  0.51346824  0.38156932     0.94200
N2114       N  0.77571432  0.58722099  0.26997118    -0.07900
N2115       N  0.79084303  0.61916423  0.27170073    -0.60400
N2116       N  0.82843897  0.02592165  0.25503089    -0.06000
N2117       N  0.85839766  0.01812631  0.24942248    -0.61700
N2118       N  0.81627939  0.04270116  0.22968597    -0.07900
N2119       N  0.83762073  0.04709589  0.20689470    -0.60700
N2120       N  0.78372240  0.57038973  0.29710962    -0.05700
N2121       N  0.80063630  0.59188919  0.31807849    -0.61700
Mn2122     Mn  0.79891103  0.51599993  0.29804164     1.18400
C2123       C  0.80766016  0.62111807  0.30125012     0.96600
C2124       C  0.86368223  0.03223132  0.21957143     0.97200
N2125       N  0.68740077  0.46508851  0.28504787    -0.07900
N2126       N  0.66636582  0.46466270  0.30836310    -0.64300
N2127       N  0.71930401  0.93540955  0.21881742    -0.06700
N2128       N  0.70713831  0.91247563  0.19628860    -0.64900
N2129       N  0.72925345  0.91911031  0.24553952    -0.07400
N2130       N  0.72194674  0.88485020  0.24144258    -0.64500
N2131       N  0.67573990  0.48059260  0.25861320    -0.06300
N2132       N  0.64665520  0.49115730  0.26371514    -0.65200
Mn2133     Mn  0.73816706  0.94807765  0.29353145     1.10700
C2134       C  0.64129449  0.48054473  0.29463351     0.97800
C2135       C  0.70779737  0.88090389  0.21054109     0.97800
N2136       N  0.75937485  0.02517030  0.17728923    -0.07500
N2137       N  0.77660951  0.02428150  0.15054089    -0.62800
N2138       N  0.68982179  0.54626798  0.20872820    -0.06800
N2139       N  0.66383230  0.55611251  0.19136187    -0.59600
N2140       N  0.71264632  0.57258489  0.21127805    -0.08100
N2141       N  0.70203947  0.60044404  0.19538711    -0.62400
N2142       N  0.73545076  0.00036675  0.17541006    -0.07100
N2143       N  0.73512152  0.98260545  0.14741403    -0.59600
Mn2144     Mn  0.76541369  0.55844629  0.22223170     1.20200
Mn2145     Mn  0.70509383  0.98994264  0.21674531     1.10100
Cl2146     Cl  0.75142482  0.50340701  0.25691967    -0.87600
C2147       C  0.76052672  0.99803608  0.13178541     0.93400
C2148       C  0.67097447  0.59043031  0.18329766     0.94600
C2149       C  0.85018770  0.66823824  0.29038503    -0.10700
C2150       C  0.84226932  0.63427132  0.30161853     0.05500
C2151       C  0.86732269  0.61043851  0.30445507    -0.04500
C2152       C  0.89703492  0.61898020  0.29066112    -0.09000
C2153       C  0.90309588  0.65120819  0.27579692     0.04600
C2154       C  0.88102221  0.67722413  0.27874443    -0.04000
Br2155     Br  0.89296413  0.72561359  0.27035701    -0.03700
H2156       H  0.83207020  0.68729995  0.28957577     0.08500
H2157       H  0.91512940  0.59984290  0.29049907     0.06500
Br2158     Br  0.86374111  0.56453477  0.32394483    -0.04100
C2159       C  0.65420286  0.86633977  0.18290717    -0.10700
C2160       C  0.67967518  0.85480806  0.20323895     0.05500
C2161       C  0.67134875  0.83048162  0.22747012    -0.04500
C2162       C  0.63975785  0.82846674  0.23885837    -0.09000
C2163       C  0.61576027  0.84834329  0.22407710     0.04600
C2164       C  0.62252491  0.86496551  0.19400546    -0.04000
Br2165     Br  0.59166403  0.89080174  0.16959808    -0.03700
H2166       H  0.65980682  0.88258239  0.16179549     0.08500
H2167       H  0.63429216  0.81212615  0.25987553     0.06500
Br2168     Br  0.70372003  0.80250417  0.24623869    -0.04100
C2169       C  0.76117943  0.94961043  0.05102226    -0.10700
C2170       C  0.78231310  0.92350867  0.05963721     0.05500
C2171       C  0.80171034  0.92847188  0.08940956    -0.04500
C2172       C  0.79715576  0.95644326  0.11092001    -0.09000
C2173       C  0.77375913  0.98005622  0.10369088     0.04600
C2174       C  0.75694464  0.97773767  0.07277175    -0.04000
Br2175     Br  0.72726923  0.01199409  0.06015020    -0.03700
H2176       H  0.74688759  0.94743080  0.02798469     0.08500
H2177       H  0.81005601  0.95796096  0.13481671     0.06500
Br2178     Br  0.83302231  0.89707207  0.10469228    -0.04100
C2179       C  0.70126945  0.54751559  0.40851425    -0.10700
C2180       C  0.73111264  0.53222165  0.41055229     0.05500
C2181       C  0.75388368  0.54310085  0.43627127    -0.04500
C2182       C  0.74832865  0.57133903  0.45696725    -0.09000
C2183       C  0.72016330  0.58954761  0.45273770     0.04600
C2184       C  0.69550338  0.57589078  0.42943532    -0.04000
Br2185     Br  0.65386858  0.59486261  0.42421491    -0.03700
H2186       H  0.68336364  0.53916698  0.38904920     0.08500
H2187       H  0.76723931  0.58028202  0.47531508     0.06500
Br2188     Br  0.79406624  0.52139823  0.44284202    -0.04100
C2189       C  0.68729355  0.70303009  0.34237406    -0.10700
C2190       C  0.70657339  0.73353162  0.35185776     0.05500
C2191       C  0.70376601  0.76438765  0.33343801    -0.04500
C2192       C  0.67526019  0.76758114  0.31468398    -0.09000
C2193       C  0.65265387  0.73866683  0.30958334     0.04600
C2194       C  0.66031812  0.70514265  0.32095344    -0.04000
Br2195     Br  0.63261368  0.66234040  0.31421992    -0.03700
H2196       H  0.69029714  0.67869117  0.35528551     0.08500
H2197       H  0.67006168  0.79313288  0.30535093     0.06500
Br2198     Br  0.73529181  0.80453007  0.33614057    -0.04100
C2199       C  0.82316412  0.80848259  0.15986929    -0.10700
C2200       C  0.80373739  0.77756860  0.15222997     0.05500
C2201       C  0.80803324  0.74755600  0.17141951    -0.04500
C2202       C  0.83762805  0.74536079  0.18901105    -0.09000
C2203       C  0.86100984  0.77408386  0.18987833     0.04600
C2204       C  0.85224173  0.80699923  0.17815570    -0.04000
Br2205     Br  0.88059145  0.84960105  0.18008789    -0.03700
H2206       H  0.81869232  0.83243086  0.14701377     0.08500
H2207       H  0.84296476  0.72090487  0.20054745     0.06500
Br2208     Br  0.77601814  0.70814742  0.17220594    -0.04100
C2209       C  0.85910563  0.64285600  0.45868526    -0.10700
C2210       C  0.86526871  0.65955595  0.48935124     0.05500
C2211       C  0.87921097  0.64174117  0.51570875    -0.04500
C2212       C  0.88420090  0.60636253  0.51206934    -0.09000
C2213       C  0.87646607  0.58895684  0.48186981     0.04600
C2214       C  0.86497118  0.60774623  0.45464304    -0.04000
Br2215     Br  0.85632383  0.58667895  0.41163368    -0.03700
H2216       H  0.84735867  0.65628123  0.43865588     0.08500
H2217       H  0.89513788  0.59278692  0.53253118     0.06500
Br2218     Br  0.88893469  0.66442476  0.55787529    -0.04100
C2219       C  0.60916667  0.90269196  0.00096121    -0.10700
C2220       C  0.62294599  0.92535341  0.02612502     0.05500
C2221       C  0.64217972  0.91231858  0.05184390    -0.04500
C2222       C  0.64965583  0.87746370  0.05063393    -0.09000
C2223       C  0.63736502  0.85528491  0.02448080     0.04600
C2224       C  0.61582422  0.86752902  0.00039651    -0.04000
Br2225     Br  0.59710820  0.83751236  0.96506629    -0.03700
H2226       H  0.59227686  0.91202459  0.98249473     0.08500
H2227       H  0.66707411  0.86837395  0.06874828     0.06500
Br2228     Br  0.65917919  0.94148050  0.08857400    -0.04100
C2229       C  0.59894986  0.52481709  0.35938412    -0.10700
C2230       C  0.57676647  0.00039472  0.36647285     0.05500
C2231       C  0.57139676  0.96895053  0.34781768    -0.04500
C2232       C  0.59120187  0.96330620  0.32184794    -0.09000
C2233       C  0.61462254  0.48973408  0.31386229     0.04600
C2234       C  0.61746612  0.52159461  0.33189652    -0.04000
Br2235     Br  0.64864700  0.55971671  0.32193410    -0.03700
H2236       H  0.60182827  0.54893771  0.37400500     0.08500
H2237       H  0.58908788  0.93798266  0.30912656     0.06500
Br2238     Br  0.54049923  0.93114075  0.35914121    -0.04100
C2239       C  0.89376395  0.99085344  0.18932699    -0.10700
C2240       C  0.89030887  0.02571203  0.19893175     0.05500
C2241       C  0.90232136  0.55908383  0.18018679    -0.04500
C2242       C  0.91933032  0.55215610  0.15248364    -0.09000
C2243       C  0.92332439  0.51750518  0.14326176     0.04600
C2244       C  0.90924808  0.98379923  0.16043431    -0.04000
Br2245     Br  0.91200664  0.93575931  0.14717136    -0.03700
H2246       H  0.88204441  0.96927892  0.20262472     0.08500
H2247       H  0.92787307  0.57366825  0.13710356     0.06500
Br2248     Br  0.89256465  0.60680101  0.18806482    -0.04100
C2249       C  0.49455245  0.80499653  0.08133193    -0.10700
C2250       C  0.52497221  0.80887268  0.09829402     0.05500
C2251       C  0.55136430  0.82720851  0.08412936    -0.04500
C2252       C  0.04453685  0.84650772  0.05761626    -0.09000
C2253       C  0.01172922  0.84932184  0.04718464     0.04600
C2254       C  0.98757607  0.82492667  0.05852474    -0.04000
Br2255     Br  0.94274870  0.82276040  0.04321900    -0.03700
H2256       H  0.47460037  0.78891473  0.09133972     0.08500
H2257       H  0.06365959  0.86383773  0.04777882     0.06500
Br2258     Br  0.59483996  0.82708319  0.10290686    -0.04100
C2259       C  0.51540441  0.70497023  0.41886250    -0.10700
C2260       C  0.98513610  0.69745019  0.39823577     0.05500
C2261       C  0.95593295  0.67955963  0.40680805    -0.04500
C2262       C  0.95455635  0.66393530  0.43751330    -0.09000
C2263       C  0.48889736  0.66313122  0.45455931     0.04600
C2264       C  0.51564399  0.68702136  0.44843341    -0.04000
Br2265     Br  0.55463208  0.69186158  0.47633009    -0.03700
H2266       H  0.53715724  0.72048084  0.41202678     0.08500
H2267       H  0.93322242  0.64698744  0.44257926     0.06500
Br2268     Br  0.91913484  0.67236004  0.37613514    -0.04100
C2269       C  0.90155734  0.85195340  0.84343241     0.84900
C2270       C  0.91939847  0.87933503  0.86724112    -0.55300
C2271       C  0.90070978  0.89657319  0.88806786     0.07800
C2272       C  0.86299301  0.88594593  0.88161416     0.18800
C2273       C  0.88012650  0.82786651  0.86746091    -0.56100
C2274       C  0.85948812  0.84514184  0.88788754     0.07900
C2275       C  0.87584362  0.87309481  0.82440628    -0.55600
C2276       C  0.85509813  0.89115294  0.84312184     0.08500
H2277       H  0.94580079  0.88376132  0.86849002     0.13000
H2278       H  0.84758484  0.90082111  0.89761913    -0.01200
H2279       H  0.88161934  0.79962410  0.86830678     0.13300
H2280       H  0.87464650  0.87416610  0.79770898     0.13100
C2281       C  0.64593428  0.61435979  0.65852733     0.84900
C2282       C  0.62332217  0.63695070  0.67784319    -0.55300
C2283       C  0.60226074  0.65665017  0.65972956     0.07800
C2284       C  0.60831429  0.65305491  0.62096007     0.18800
C2285       C  0.62181733  0.59305891  0.63381221    -0.56100
C2286       C  0.60206661  0.61243634  0.61398230     0.07900
C2287       C  0.66463918  0.64113948  0.63612783    -0.55600
C2288       C  0.64647445  0.66138514  0.61514755     0.08500
H2289       H  0.62260941  0.63526605  0.70445930     0.13000
H2290       H  0.59231816  0.66867949  0.60527267    -0.01200
H2291       H  0.62033505  0.56449913  0.63231085     0.13300
H2292       H  0.69101309  0.64236009  0.63581783     0.13100
N2293       N  0.55217317  0.01721241  0.94841751    -0.07700
N2294       N  0.57689616  0.01232383  0.92979766    -0.59800
N2295       N  0.99687420  0.57093899  0.95993324    -0.07400
N2296       N  0.98096187  0.59829188  0.95233464    -0.62000
N2297       N  0.52176193  0.57909713  0.97502081    -0.07000
N2298       N  0.52437042  0.61346659  0.98028019    -0.59800
N2299       N  0.52456743  0.00635306  0.93243226    -0.06700
N2300       N  0.52973653  0.99395424  0.90304989    -0.62300
C2301       C  0.56223880  0.99751133  0.90201044     0.94500
C2302       C  0.49666622  0.62396785  0.96587736     0.94200
N2303       N  0.92012742  0.51583515  0.99386457    -0.07900
N2304       N  0.89252170  0.53030375  0.49973631    -0.60400
N2305       N  0.95235203  0.96081977  0.93622315    -0.06000
N2306       N  0.94044195  0.94788467  0.90722775    -0.61700
N2307       N  0.93858226  0.94334762  0.96037062    -0.07900
N2308       N  0.91676750  0.91829447  0.94777135    -0.60700
N2309       N  0.93189581  0.52922595  0.96691992    -0.05700
N2310       N  0.91741178  0.55696204  0.95794944    -0.61700
Mn2311     Mn  0.97727628  0.51662833  0.94881514     1.18400
C2312       C  0.89593112  0.56042814  0.98119124     0.96600
C2313       C  0.91801203  0.92135985  0.91435225     0.97200
N2314       N  0.55468932  0.57072192  0.54501719    -0.07900
N2315       N  0.57668388  0.59614982  0.55634752    -0.64300
N2316       N  0.56735713  0.98726049  0.54094083    -0.06700
N2317       N  0.58219032  0.95899052  0.54769995    -0.64900
N2318       N  0.58103054  0.00030592  0.01878993    -0.07400
N2319       N  0.60529622  0.98320140  0.00819538    -0.64500
N2320       N  0.54161314  0.55396199  0.56991305    -0.06300
N2321       N  0.55490886  0.56735169  0.59825270    -0.65200
Mn2322     Mn  0.55284435  0.54035500  0.99468050     1.10700
C2323       C  0.57624471  0.59445697  0.58984339     0.97800
C2324       C  0.60297867  0.95694396  0.52346059     0.97800
N2325       N  0.97036208  0.93490658  0.53201093    -0.07500
N2326       N  0.96884074  0.90108892  0.52389558    -0.62800
N2327       N  0.97343165  0.50686697  0.57613586    -0.06800
N2328       N  0.96816949  0.51763964  0.60611099    -0.59600
N2329       N  0.94586917  0.49571879  0.56010985    -0.08100
N2330       N  0.92121241  0.49878951  0.57929876    -0.62400
N2331       N  0.99730969  0.94415151  0.54986715    -0.07100
N2332       N  0.52124261  0.91707246  0.55408327    -0.59600
Mn2333     Mn  0.94067572  0.97458017  0.51139648     1.20200
Mn2334     Mn  0.52137013  0.99806613  0.55995660     1.10100
Cl2335     Cl  0.00003526  0.50672291  0.00627183    -0.87600
C2336       C  0.99684892  0.89044851  0.53747460     0.94800
C2337       C  0.93572055  0.51268658  0.60753217     0.94600
N2338       N  0.80489483  0.70643896  0.01600432    -0.07700
N2339       N  0.81862433  0.67753639  0.00961880    -0.59800
N2340       N  0.79567966  0.77350145  0.56544642    -0.07400
N2341       N  0.80401944  0.79256867  0.59229044    -0.62000
N2342       N  0.77664111  0.74568561  0.57343151    -0.07000
N2343       N  0.77196677  0.74536352  0.60518508    -0.59800
N2344       N  0.82344972  0.73422325  0.00694176    -0.06700
N2345       N  0.85040180  0.72443672  0.99434814    -0.62300
C2346       C  0.84652999  0.68906508  0.99625007     0.94500
C2347       C  0.78883480  0.77479048  0.61679214     0.94200
N2348       N  0.76720624  0.84742068  0.50055202    -0.07900
N2349       N  0.75916552  0.87919048  0.50854099    -0.60400
N2350       N  0.81902451  0.80393817  0.95979050    -0.06000
N2351       N  0.84630287  0.81210753  0.94350334    -0.61700
N2352       N  0.79377125  0.81371520  0.94227293    -0.07900
N2353       N  0.80353417  0.82880554  0.91437746    -0.60700
N2354       N  0.79162927  0.83872657  0.51963809    -0.05700
N2355       N  0.80073811  0.86424171  0.54123216    -0.61700
Mn2356     Mn  0.80920631  0.78612145  0.51359127     1.18400
C2357       C  0.78052743  0.88966964  0.53387648     0.96600
C2358       C  0.83662436  0.82731078  0.91441864     0.97200
N2359       N  0.70674424  0.70518357  0.56193297    -0.07900
N2360       N  0.69833367  0.68855125  0.58925230    -0.64300
N2361       N  0.71022170  0.67754729  0.98303126    -0.06700
N2362       N  0.69953470  0.65216939  0.96188589    -0.64900
N2363       N  0.73546794  0.66840806  0.00062088    -0.07400
N2364       N  0.74248795  0.63639883  0.99199614    -0.64500
N2365       N  0.68070752  0.71191874  0.54389303    -0.06300
N2366       N  0.65398087  0.69887992  0.55936268    -0.65200
Mn2367     Mn  0.75572454  0.70587026  0.53931542     1.10700
C2368       C  0.66519697  0.68465212  0.58859395     0.97800
C2369       C  0.71976392  0.62639341  0.96768022     0.97800
N2370       N  0.72282191  0.77258633  0.93207363    -0.07500
N2371       N  0.72785830  0.77244727  0.90037039    -0.62800
N2372       N  0.67821203  0.78295059  0.49283779    -0.06800
N2373       N  0.65004102  0.79399272  0.50126941    -0.59600
N2374       N  0.69742848  0.80973837  0.48247686    -0.08100
N2375       N  0.68268554  0.83885694  0.48345729    -0.62400
N2376       N  0.70447815  0.74425379  0.94021506    -0.07100
N2377       N  0.69715736  0.72442290  0.91366338    -0.59600
Mn2378     Mn  0.74453258  0.81215689  0.96646275     1.20200
Mn2379     Mn  0.69245418  0.72952666  0.99181531     1.10100
Cl2380     Cl  0.75056229  0.75748129  0.50141753    -0.87600
C2381       C  0.71209192  0.74218828  0.88910359     0.94800
C2382       C  0.65345482  0.82875862  0.49474959     0.94600
N2383       N  0.93840505  0.75424190  0.69807022    -0.07700
N2384       N  0.90808684  0.74458694  0.68757063    -0.59800
N2385       N  0.00276748  0.80389274  0.67954048    -0.07400
N2386       N  0.51302960  0.82506673  0.66104448    -0.62000
N2387       N  0.00400705  0.77136198  0.66834172    -0.07000
N2388       N  0.51389131  0.76972861  0.64245462    -0.59800
N2389       N  0.93924698  0.78563077  0.71221583    -0.06700
N2390       N  0.91048470  0.79770181  0.71204657    -0.62300
C2391       C  0.89128827  0.77220661  0.69667492     0.94500
C2392       C  0.52018102  0.80373423  0.63571196     0.94200
N2393       N  0.54336050  0.83111559  0.77701143    -0.07900
N2394       N  0.57513927  0.83701941  0.77495253    -0.60400
N2395       N  0.95843001  0.82495845  0.77927438    -0.06000
N2396       N  0.93028158  0.83796850  0.78706434    -0.61700
N2397       N  0.97340047  0.81457291  0.80622764    -0.07900
N2398       N  0.95562682  0.82030644  0.83242359    -0.60700
N2399       N  0.52839760  0.84114077  0.74994708    -0.05700
N2400       N  0.54983086  0.85385769  0.72918381    -0.61700
Mn2401     Mn  0.98209613  0.81561656  0.72908966     1.18400
C2402       C  0.57888125  0.85128398  0.74507020     0.96600
C2403       C  0.92808761  0.83499125  0.82070673     0.97200
N2404       N  0.53028269  0.69760414  0.69127736    -0.07900
N2405       N  0.54769078  0.68926903  0.66534652    -0.64300
N2406       N  0.97927313  0.67340201  0.74905316    -0.06700
N2407       N  0.95882764  0.65914088  0.77001034    -0.64900
N2408       N  0.96334850  0.68382616  0.72265951    -0.07400
N2409       N  0.93171481  0.67742848  0.72560979    -0.64500
N2410       N  0.54486422  0.68786518  0.71868759    -0.06300
N2411       N  0.57205967  0.67294360  0.71185467    -0.65200
Mn2412     Mn  0.98429580  0.72630038  0.69319374     1.10700
C2413       C  0.57430580  0.67367241  0.67831756     0.97800
C2414       C  0.92942938  0.66192547  0.75508788     0.97800
N2415       N  0.50184999  0.74240470  0.82896508    -0.07500
N2416       N  0.99349437  0.74403111  0.85619288    -0.62800
N2417       N  0.56695292  0.72846320  0.78465834    -0.06800
N2418       N  0.59598396  0.71676753  0.78476898    -0.59600
N2419       N  0.56767954  0.75981194  0.79891410    -0.08100
N2420       N  0.59791123  0.76974435  0.80936931    -0.62400
N2421       N  0.50263288  0.71002934  0.81747409    -0.07100
N2422       N  0.99643641  0.68906126  0.83741343    -0.59600
Mn2423     Mn  0.52195088  0.78753272  0.80478292     1.20200
Mn2424     Mn  0.52302456  0.69848532  0.76836340     1.10100
Cl2425     Cl  0.00347637  0.75803499  0.74707780    -0.87600
C2426       C  0.98893684  0.70979629  0.86294959     0.94800
C2427       C  0.61507969  0.74255602  0.80015254     0.94600
N2428       N  0.78581960  0.93347368  0.80266031    -0.07700
N2429       N  0.79772416  0.90518318  0.81683350    -0.59800
N2430       N  0.76705733  0.50724310  0.83761858    -0.07400
N2431       N  0.76658407  0.52739747  0.86408671    -0.62000
N2432       N  0.74285972  0.48271423  0.83653213    -0.07000
N2433       N  0.72464278  0.48625166  0.86235404    -0.59800
N2434       N  0.80883739  0.95960315  0.80348870    -0.06700
N2435       N  0.83623385  0.94938286  0.81809240    -0.62300
C2436       C  0.82964572  0.91502572  0.82646311     0.94500
C2437       C  0.74041803  0.51384630  0.87969414     0.94200
N2438       N  0.77358301  0.58625962  0.76523087    -0.07900
N2439       N  0.78739290  0.61881097  0.76626644    -0.60400
N2440       N  0.82226948  0.02552254  0.75202172    -0.06000
N2441       N  0.85304978  0.02035803  0.74678196    -0.61700
N2442       N  0.80908421  0.04063310  0.72620209    -0.07900
N2443       N  0.83016502  0.04623256  0.70345398    -0.60700
N2444       N  0.78191219  0.57047334  0.79284536    -0.05700
N2445       N  0.79783255  0.59320187  0.81340176    -0.61700
Mn2446     Mn  0.79728262  0.51595330  0.79587326     1.18400
C2447       C  0.80380324  0.62229641  0.79598505     0.96600
C2448       C  0.85732310  0.03412784  0.71651339     0.97200
N2449       N  0.68628877  0.46208501  0.78424703    -0.07900
N2450       N  0.66487620  0.45608697  0.80672931    -0.64300
N2451       N  0.71356070  0.93459382  0.71735072    -0.06700
N2452       N  0.70192564  0.91172871  0.69461147    -0.64900
N2453       N  0.72318487  0.91824106  0.74418275    -0.07400
N2454       N  0.71518104  0.88404355  0.74016889    -0.64500
N2455       N  0.67328659  0.47784070  0.75863372    -0.06300
N2456       N  0.64250254  0.48284169  0.76369853    -0.65200
Mn2457     Mn  0.73240668  0.94774973  0.79188393     1.10700
C2458       C  0.63787702  0.46887104  0.79378912     0.97800
C2459       C  0.70129174  0.88025069  0.70910323     0.97800
N2460       N  0.75288287  0.02161598  0.67418021    -0.07500
N2461       N  0.77041656  0.01913863  0.64776322    -0.62800
N2462       N  0.68668759  0.54581058  0.70696076    -0.06800
N2463       N  0.66048703  0.55654209  0.69032349    -0.59600
N2464       N  0.71029428  0.57137913  0.70810565    -0.08100
N2465       N  0.70007368  0.59946297  0.69224874    -0.62400
N2466       N  0.72849126  0.99740580  0.67283030    -0.07100
N2467       N  0.72815897  0.97829651  0.64562371    -0.59600
Mn2468     Mn  0.76291554  0.55617641  0.71850002     1.20200
Mn2469     Mn  0.69824719  0.98887175  0.71436807     1.10100
Cl2470     Cl  0.74935048  0.50241159  0.75511281    -0.87600
C2471       C  0.75412496  0.99228908  0.62992577     0.93400
C2472       C  0.66837728  0.59068414  0.68149473     0.94600
C2473       C  0.84479070  0.67085839  0.78387264    -0.10700
C2474       C  0.83791695  0.63736120  0.79670928     0.05500
C2475       C  0.86404757  0.61526656  0.80190164    -0.04500
C2476       C  0.89381562  0.62421295  0.78836428    -0.09000
C2477       C  0.89911633  0.65569362  0.77201640     0.04600
C2478       C  0.87587878  0.68073059  0.77316123    -0.04000
Br2479     Br  0.88692082  0.72932228  0.76520613    -0.03700
H2480       H  0.82589274  0.68894508  0.78157009     0.08500
H2481       H  0.91269993  0.60599258  0.78983654     0.06500
Br2482     Br  0.86209492  0.57130652  0.82492451    -0.04100
C2483       C  0.64549895  0.87158499  0.68563812    -0.10700
C2484       C  0.67147323  0.85636249  0.70241124     0.05500
C2485       C  0.66362565  0.83001192  0.72495331    -0.04500
C2486       C  0.63284356  0.82792324  0.73828965    -0.09000
C2487       C  0.60947794  0.85097689  0.72779142     0.04600
C2488       C  0.61525151  0.87132776  0.69967439    -0.04000
Br2489     Br  0.58549099  0.90366962  0.68251356    -0.03700
H2490       H  0.65027463  0.88971242  0.66575414     0.08500
H2491       H  0.62762162  0.80915407  0.75741301     0.06500
Br2492     Br  0.69526609  0.79847936  0.73858393    -0.04100
C2493       C  0.74953903  0.93975710  0.55096650    -0.10700
C2494       C  0.77823557  0.92223782  0.55416886     0.05500
C2495       C  0.80230533  0.93466654  0.57854381    -0.04500
C2496       C  0.79553363  0.96081918  0.60136989    -0.09000
C2497       C  0.76528507  0.97519895  0.60015326     0.04600
C2498       C  0.74299635  0.96590946  0.57363572    -0.04000
Br2499     Br  0.70256625  0.98735418  0.56821095    -0.03700
H2500       H  0.73114228  0.93181190  0.53189098     0.08500
H2501       H  0.81306600  0.96810491  0.62147142     0.06500
Br2502     Br  0.84457142  0.91699213  0.58272464    -0.04100
C2503       C  0.70283485  0.55571992  0.89963485    -0.10700
C2504       C  0.72754064  0.53357629  0.90707764     0.05500
C2505       C  0.74589838  0.53892323  0.93699916    -0.04500
C2506       C  0.74158827  0.56806932  0.95731709    -0.09000
C2507       C  0.71908317  0.59258246  0.94833200     0.04600
C2508       C  0.69830604  0.58492949  0.91984017    -0.04000
Br2509     Br  0.66483326  0.61400892  0.90495589    -0.03700
H2510       H  0.68874175  0.55202651  0.87648127     0.08500
H2511       H  0.75710689  0.57238476  0.97947957     0.06500
Br2512     Br  0.77844318  0.50795500  0.95000067    -0.04100
C2513       C  0.68346684  0.70431871  0.84713663    -0.10700
C2514       C  0.70286497  0.73544797  0.85423340     0.05500
C2515       C  0.70011121  0.76430546  0.83329093    -0.04500
C2516       C  0.67144775  0.76597554  0.81412350    -0.09000
C2517       C  0.64800645  0.73733249  0.81270654     0.04600
C2518       C  0.65541555  0.70511871  0.82701773    -0.04000
Br2519     Br  0.62569909  0.66354765  0.82694201    -0.03700
H2520       H  0.68668278  0.68122903  0.86179240     0.08500
H2521       H  0.66664156  0.79017776  0.80209067     0.06500
Br2522     Br  0.73238905  0.80355682  0.83282726    -0.04100
C2523       C  0.81827468  0.81097223  0.65919072    -0.10700
C2524       C  0.79941157  0.77968429  0.65152105     0.05500
C2525       C  0.80456062  0.74961014  0.67036608    -0.04500
C2526       C  0.83459367  0.74778538  0.68700222    -0.09000
C2527       C  0.85746966  0.77686174  0.68738810     0.04600
C2528       C  0.84793678  0.80980047  0.67647530    -0.04000
Br2529     Br  0.87591037  0.85276745  0.67780879    -0.03700
H2530       H  0.81319129  0.83489012  0.64649009     0.08500
H2531       H  0.84070818  0.72327577  0.69795433     0.06500
Br2532     Br  0.77390561  0.70895033  0.67072423    -0.04100
C2533       C  0.85944349  0.64354417  0.95917014    -0.10700
C2534       C  0.86916393  0.66441322  0.98693576     0.05500
C2535       C  0.88870805  0.65123717  0.01226147    -0.04500
C2536       C  0.89496701  0.61592841  0.01151484    -0.09000
C2537       C  0.88284923  0.59417909  0.98498768     0.04600
C2538       C  0.86653005  0.60860331  0.95784494    -0.04000
Br2539     Br  0.85253786  0.58134294  0.91893886    -0.03700
H2540       H  0.84386137  0.65352332  0.93986395     0.08500
H2541       H  0.91002694  0.60568413  0.03117371     0.06500
Br2542     Br  0.90496926  0.68028886  0.04925357    -0.04100
C2543       C  0.61096462  0.90910675  0.48430843    -0.10700
C2544       C  0.61593689  0.92341899  0.51623757     0.05500
C2545       C  0.62715916  0.90246625  0.54206651    -0.04500
C2546       C  0.63487334  0.86837842  0.53523028    -0.09000
C2547       C  0.63153277  0.85485165  0.50305919     0.04600
C2548       C  0.61854176  0.87488949  0.47763925    -0.04000
Br2549     Br  0.61218109  0.85683127  0.43328537    -0.03700
H2550       H  0.60066973  0.92431847  0.46461831     0.08500
H2551       H  0.64599433  0.85340710  0.55463008     0.06500
Br2552     Br  0.63393218  0.91943835  0.58680860    -0.04100
C2553       C  0.58062055  0.51024324  0.84752215    -0.10700
C2554       C  0.57840671  0.99066166  0.87222217     0.05500
C2555       C  0.58056664  0.95598531  0.86134891    -0.04500
C2556       C  0.59511985  0.95000057  0.83187123    -0.09000
C2557       C  0.61002913  0.47203338  0.81403647     0.04600
C2558       C  0.59777494  0.50491392  0.81937404    -0.04000
Br2559     Br  0.60747861  0.54474963  0.79207308    -0.03700
H2560       H  0.57206724  0.53587977  0.85236371     0.08500
H2561       H  0.59934608  0.92326542  0.82482523     0.06500
Br2562     Br  0.56659776  0.91640577  0.88742968    -0.04100
C2563       C  0.89409920  0.99956767  0.68688476    -0.10700
C2564       C  0.88544691  0.03276285  0.69655634     0.05500
C2565       C  0.89930786  0.55724522  0.67706249    -0.04500
C2566       C  0.91539609  0.55161379  0.64842683    -0.09000
C2567       C  0.91942314  0.51739060  0.63780841     0.04600
C2568       C  0.90943803  0.99549381  0.65733672    -0.04000
Br2569     Br  0.91793517  0.94897340  0.64332778    -0.03700
H2570       H  0.88601634  0.97644980  0.70041608     0.08500
H2571       H  0.92353334  0.57383538  0.63369946     0.06500
Br2572     Br  0.89036183  0.60460615  0.68791164    -0.04100
C2573       C  0.49246671  0.80888331  0.58176827    -0.10700
C2574       C  0.52099614  0.81496014  0.60183877     0.05500
C2575       C  0.54839597  0.83342910  0.58967907    -0.04500
C2576       C  0.03762632  0.85116359  0.55291818    -0.09000
C2577       C  0.00564771  0.85414835  0.54025442     0.04600
C2578       C  0.98117672  0.82845541  0.54843719    -0.04000
Br2579     Br  0.93956254  0.82299133  0.52504508    -0.03700
H2580       H  0.47207713  0.79205893  0.58997781     0.08500
H2581       H  0.05743379  0.86884767  0.54476696     0.06500
Br2582     Br  0.58965260  0.83670273  0.61363651    -0.04100
C2583       C  0.51445978  0.70103999  0.91840391    -0.10700
C2584       C  0.98869491  0.69819619  0.89669141     0.05500
C2585       C  0.96046200  0.68262290  0.91002774    -0.04500
C2586       C  0.96325164  0.66548484  0.93990277    -0.09000
C2587       C  0.49101056  0.65999296  0.95677647     0.04600
C2588       C  0.51761012  0.68264018  0.94750831    -0.04000
Br2589     Br  0.55999156  0.68453842  0.96944835    -0.03700
H2590       H  0.53577279  0.71549684  0.90897041     0.08500
H2591       H  0.94194625  0.64990314  0.94829660     0.06500
Br2592     Br  0.91894292  0.68072747  0.88649240    -0.04100
loop_ 
_geom_bond_atom_site_label_1 
_geom_bond_atom_site_label_2 
_geom_bond_distance 
_geom_bond_site_symmetry_2 
_ccdc_geom_bond_type 
C1            C2   1.536       .  S
C1            C7   1.565       .  S
C1            C5   1.593       .  S
C1          C135   1.626       .  S
C2            H9   1.087       .  S
C2            C3   1.368       .  D
C3            C4   1.580       .  S
C3           C45   1.527       .  S
C4            C8   1.595       .  S
C4            C6   1.579       .  S
C4           H10   1.110       .  S
C5           H11   1.084       .  S
C5            C6   1.406       .  D
C6           C90   1.586       .  S
C7           H12   1.085       .  S
C7            C8   1.385       .  D
C8          C168   1.571       .  S
C13          C14   1.543       .  S
C13          C19   1.550       .  S
C13          C17   1.558       .  S
C13         C204   1.607       .  S
C14          H21   1.086       .  S
C14          C15   1.384       .  D
C15          C16   1.604       .  S
C15         C145   1.570       .  S
C16          C20   1.606       .  S
C16          C18   1.573       .  S
C16          H22   1.110       .  S
C17          H23   1.086       .  S
C17          C18   1.384       .  D
C18          C55   1.537       .  S
C19          H24   1.085       .  S
C19          C20   1.387       .  D
C20         C100   1.581       .  S
N25          N26   1.317       .  A
N25          N31   1.318       .  A
N25        Mn702   2.209       .  S
N26          C33   1.350       .  A
N27          N28   1.309       .  A
N27        N1325   1.318       .  A
N27         Mn43   2.195       .  S
N28        C1330   1.347       .  A
N29          N30   1.321       .  A
N29        N1323   1.318   1_455  A
N29         Mn54   2.172       .  S
N30          C34   1.353   1_455  A
N31          N32   1.312       .  A
N31       Mn1987   2.141   1_455  S
N32          C33   1.341       .  A
C33         C286   1.445       .  S
C34        N1324   1.347       .  A
C34         C319   1.463       .  S
N35          N41   1.309       .  A
N35         N360   1.322       .  A
N35       Mn1037   2.187   1_545  S
N36         N359   1.323   1_554  A
N36         C368   1.361   1_554  A
N37          N38   1.328       .  A
N37          N39   1.317       .  A
N37        Mn691   2.224       .  S
N38          C45   1.358       .  A
N39          N40   1.337       .  A
N39        Mn389   2.287       .  S
N40          C45   1.366       .  A
N41          N42   1.303       .  A
N41         Mn43   2.128       .  S
N42          C44   1.336       .  A
Mn43       N1975   2.143       .  S
Mn43        N685   2.223   1_545  S
Mn43        Cl67   2.519       .  S
C44         N360   1.360       .  A
C44         C269   1.442       .  S
N46          N47   1.337       .  A
N46          N52   1.318       .  A
N46        Mn378   2.283   1_554  S
N47          C55   1.365       .  A
N48          N49   1.306       .  A
N48         N374   1.309       .  A
N48         Mn66   2.131       .  S
N49          C56   1.337       .  A
N50          N51   1.322       .  A
N50         N372   1.310       .  A
N50        Mn702   2.196       .  S
N51         C380   1.360       .  A
N52          N53   1.332       .  A
N52        Mn714   2.244   1_545  S
N53          C55   1.362       .  A
Mn54        N673   2.211       .  S
Mn54        N370   2.263       .  S
Mn54        N698   2.193   1_545  S
Mn54      Cl1363   2.569   1_455  S
C56         N375   1.359       .  A
C56         C276   1.442       .  S
N57          N58   1.323       .  A
N57          N63   1.321       .  A
N57         Mn65   2.195       .  S
N58          C68   1.356       .  A
N59          N60   1.312       .  A
N59          N61   1.321   1_545  A
N59       Mn2010   2.145   1_545  S
N60          C69   1.339       .  A
N61          N62   1.320       .  A
N61        Mn713   2.223       .  S
N62          C69   1.351   1_565  A
N63        N1360   1.309       .  A
N63       Mn1362   2.196       .  S
N64        N1359   1.309       .  A
N64        C1364   1.343       .  A
Mn65       N1007   2.191   1_554  S
Mn65        N363   2.285   1_554  S
Mn65        N709   2.225       .  S
Mn65      Cl1039   2.577       .  S
Mn66        N700   2.236       .  S
Mn66       N2003   2.143   1_455  S
Mn66       N1359   2.194       .  S
Mn66      Cl2335   2.524       .  S
Cl67      Mn1350   2.570       .  S
Cl67      Mn1037   2.573   1_545  S
Cl67      Mn2334   2.524   1_545  S
C68        N1360   1.343       .  A
C68         C309   1.463       .  S
C69         C299   1.443       .  S
N70          N71   1.305       .  A
N70          N76   1.323       .  A
N70        Mn423   2.175       .  S
N71          C78   1.336       .  A
N72          N74   1.322       .  A
N72          N73   1.320       .  A
N72         Mn88   2.254       .  S
N73          C79   1.359       .  A
N74          N75   1.314       .  A
N74         Mn99   2.154       .  S
N75          C79   1.342       .  A
N76          N77   1.322       .  A
N76        Mn412   2.191       .  S
N77          C78   1.350       .  A
C78         C266   1.432       .  S
C79         C256   1.466       .  S
N80          N86   1.307       .  A
N80          N81   1.325       .  A
N80        Mn434   2.202   1_554  S
N81          C89   1.360       .  A
N82          N83   1.348       .  A
N82          N84   1.314       .  A
N82        Mn412   2.336       .  S
N83          C90   1.381       .  A
N84          N85   1.340       .  A
N84        Mn110   2.282       .  S
N85          C90   1.368       .  A
N86          N87   1.319       .  A
N86         Mn88   2.197       .  S
N87          C89   1.354       .  A
Mn88        N400   2.182       .  S
Mn88        N406   2.342   1_554  S
Mn88       Cl112   2.583       .  S
C89         C226   1.498       .  S
N91          N92   1.331       .  A
N91          N97   1.315       .  A
N91         Mn99   2.261       .  S
N92         C100   1.363       .  A
N93          N95   1.307       .  A
N93          N94   1.323       .  A
N93        Mn111   2.198       .  S
N94         C101   1.358       .  A
N95          N96   1.320       .  A
N95        Mn423   2.196       .  S
N96         C101   1.357       .  A
N97          N98   1.352       .  A
N97        Mn435   2.337   1_554  S
N98         C100   1.382       .  A
Mn99        N394   2.185       .  S
Mn99        N419   2.203       .  S
Mn99       Cl112   2.540       .  S
C101        C239   1.497       .  S
N102        N103   1.307       .  A
N102        N108   1.323       .  A
N102       Mn110   2.140       .  S
N103        C113   1.337       .  A
N104        N105   1.324       .  A
N104        N106   1.326   1_554  A
N104       Mn435   2.209   1_554  S
N105        C114   1.353       .  A
N106        N107   1.306   1_556  A
N106       Mn434   2.191       .  S
N107        C114   1.336       .  A
N108        N109   1.321       .  A
N108       Mn111   2.256       .  S
N109        C113   1.360       .  A
Mn110       N404   2.203       .  S
Mn110       N430   2.193       .  S
Mn110      Cl436   2.536       .  S
Mn111       N421   2.372       .  S
Mn111       N428   2.220       .  S
Mn111      Cl436   2.604       .  S
Cl112      Mn434   2.551   1_554  S
Cl112      Mn435   2.592   1_554  S
C113        C246   1.459       .  S
C114        C279   1.439       .  S
N115        N116   1.324       .  A
N115        N121   1.317       .  A
N115       Mn144   2.253       .  S
N116        C123   1.360       .  A
N117        N119   1.318       .  A
N117       N1414   1.323       .  A
N117       Mn133   2.271       .  S
N118       N1413   1.322       .  A
N118        C124   1.361       .  A
N119       N1416   1.311       .  A
N119       Mn144   2.130       .  S
N120       N1415   1.311       .  A
N120        C124   1.337       .  A
N121        N122   1.308       .  A
N121       Mn133   2.126       .  S
N122        C123   1.337       .  A
C123        C259   1.460       .  S
C124        C306   1.447       .  S
N125        N131   1.313       .  A
N125        N126   1.317       .  A
N125       Mn155   2.175       .  S
N126        C134   1.346       .  A
N127        N128   1.346       .  A
N127        N129   1.315       .  A
N127       Mn133   2.330       .  S
N128        C135   1.378       .  A
N129        N130   1.344       .  A
N129      Mn1451   2.309       .  S
N130        C135   1.375       .  A
N131        N132   1.323       .  A
N131      Mn1429   2.184   1_455  S
N132        C134   1.350       .  A
Mn133      N1427   2.181       .  S
Mn133      Cl157   2.533       .  S
C134        C219   1.481       .  S
N136        N137   1.348       .  A
N136        N142   1.312       .  A
N136      Mn1440   2.317   1_455  S
N137        C145   1.377       .  A
N138        N140   1.315       .  A
N138        N139   1.315       .  A
N138      Mn1452   2.155       .  S
N139        C146   1.342       .  A
N140        N141   1.318       .  A
N140       Mn144   2.177       .  S
N141        C146   1.347       .  A
N142        N143   1.330       .  A
N142       Mn156   2.261       .  S
N143        C145   1.365       .  A
Mn144      N1432   2.300       .  S
Mn144      Cl157   2.547       .  S
C146        C209   1.453       .  S
N147        N153   1.318       .  A
N147       N1444   1.310   1_455  A
N147       Mn155   2.121       .  S
N148       N1443   1.309       .  A
N148        C158   1.336       .  A
N149        N150   1.307       .  A
N149        N151   1.318       .  A
N149       Mn156   2.120       .  S
N150        C159   1.334       .  A
N151        N152   1.323       .  A
N151       Mn155   2.255       .  S
N152        C159   1.361       .  A
N153       N1450   1.319       .  A
N153       Mn156   2.234       .  S
N154       N1449   1.321       .  A
N154        C158   1.356       .  A
Mn155      N1425   2.305   1_455  S
Mn155     Cl1453   2.556       .  S
Mn156      N1434   2.155   1_455  S
Mn156     Cl1453   2.528       .  S
Cl157     Mn1451   2.550       .  S
Cl157     Mn1452   2.534       .  S
C158        C316   1.441       .  S
C159        C249   1.456       .  S
N160        N161   1.344       .  A
N160        N166   1.319       .  A
N160       Mn189   2.321       .  S
N161        C168   1.374       .  A
N162        N164   1.309   1_545  A
N162        N163   1.314       .  A
N162       Mn178   2.160       .  S
N163        C169   1.346       .  A
N164        N165   1.329       .  A
N164       Mn837   2.231       .  S
N165        C169   1.363   1_565  A
N166        N167   1.339       .  A
N166       Mn826   2.274       .  S
N167        C168   1.366       .  A
C169        C236   1.479       .  S
N170        N176   1.325       .  A
N170        N171   1.322       .  A
N170       Mn200   2.220       .  S
N171        C179   1.357       .  A
N172        N173   1.323       .  A
N172        N174   1.320       .  A
N172       Mn826   2.206       .  S
N173        C180   1.354       .  A
N174        N175   1.307       .  A
N174       Mn848   2.170       .  S
N175        C180   1.339       .  A
N176        N177   1.312       .  A
N176       Mn178   2.217       .  S
N177        C179   1.335       .  A
Mn178       N814   2.276   1_545  S
Mn178       N820   2.203       .  S
Mn178      Cl202   2.529       .  S
C179        C206   1.473       .  S
C180        C296   1.445       .  S
N181        N182   1.312       .  A
N181        N187   1.323       .  A
N181       Mn837   2.201       .  S
N182        C190   1.343       .  A
N183        N185   1.323       .  A
N183        N184   1.311       .  A
N183       Mn201   2.206       .  S
N184        C191   1.345       .  A
N185        N186   1.324       .  A
N185       Mn189   2.228       .  S
N186        C191   1.362       .  A
N187        N188   1.318       .  A
N187       Mn849   2.178       .  S
N188        C190   1.346       .  A
Mn189       N812   2.233       .  S
Mn189       N829   2.200       .  S
Mn189      Cl850   2.588       .  S
C190        C289   1.438       .  S
C191        C216   1.483       .  S
N192        N193   1.326       .  A
N192        N198   1.310       .  A
N192       Mn848   2.219       .  S
N193        C203   1.359       .  A
N194        N195   1.338       .  A
N194        N196   1.319       .  A
N194       Mn849   2.273   1_545  S
N195        C204   1.366       .  A
N196        N197   1.343       .  A
N196       Mn200   2.309       .  S
N197        C204   1.374       .  A
N198        N199   1.314       .  A
N198       Mn201   2.158       .  S
N199        C203   1.347       .  A
Mn200       N822   2.173       .  S
Mn200       N840   2.218       .  S
Mn200      Cl202   2.585       .  S
Mn201       N835   2.170       .  S
Mn201       N842   2.267       .  S
Mn201      Cl850   2.530       .  S
Cl202      Mn837   2.585   1_545  S
Cl202      Mn849   2.536   1_545  S
C203        C229   1.470       .  S
C205        C206   1.398       .  A
C205        C210   1.396       .  A
C205        H212   1.083       .  S
C206        C207   1.431       .  A
C207        C208   1.385       .  A
C207       Br214   1.929       .  S
C208        C209   1.386       .  A
C208        H213   1.085       .  S
C209        C210   1.407       .  A
C210       Br211   1.910       .  S
C215        C216   1.409       .  A
C215        C220   1.398       .  A
C215        H222   1.087       .  S
C216        C217   1.397       .  A
C217        C218   1.398       .  A
C217       Br224   1.913       .  S
C218        C219   1.412       .  A
C218        H223   1.085       .  S
C219        C220   1.412       .  A
C220       Br221   1.920       .  S
C225        C226   1.411       .  A
C225        C230   1.405       .  A
C225        H232   1.082       .  S
C226        C227   1.421       .  A
C227        C228   1.399       .  A
C227       Br234   1.918       .  S
C228        C229   1.397       .  A
C228        H233   1.084       .  S
C229        C230   1.405       .  A
C230       Br231   1.919       .  S
C235        C236   1.402       .  A
C235        C240   1.408       .  A
C235        H242   1.083       .  S
C236        C237   1.407       .  A
C237        C238   1.398       .  A
C237       Br244   1.919       .  S
C238        C239   1.407       .  A
C238        H243   1.085       .  S
C239        C240   1.420       .  A
C240       Br241   1.919       .  S
C245        C246   1.395       .  A
C245        C250   1.390       .  A
C245        H252   1.085       .  S
C246        C247   1.413       .  A
C247        C248   1.386       .  A
C247       Br254   1.926       .  S
C248        C249   1.392       .  A
C248        H253   1.084       .  S
C249        C250   1.420       .  A
C250       Br251   1.925       .  S
C255        C256   1.395       .  A
C255        C260   1.388       .  A
C255        H262   1.082       .  S
C256        C257   1.412       .  A
C257        C258   1.393       .  A
C257       Br264   1.921       .  S
C258        C259   1.398       .  A
C258        H263   1.083       .  S
C259        C260   1.416       .  A
C260       Br261   1.923       .  S
C265        C266   1.396       .  A
C265        C270   1.388       .  A
C265        H272   1.084       .  S
C266        C267   1.402       .  A
C267        C268   1.388       .  A
C267       Br274   1.920       .  S
C268        C269   1.398       .  A
C268        H273   1.085       .  S
C269        C270   1.408       .  A
C270       Br271   1.920       .  S
C275        C276   1.399       .  A
C275        C280   1.390       .  A
C275        H282   1.084   1_554  S
C276        C277   1.405       .  A
C277        C278   1.390       .  A
C277       Br284   1.921       .  S
C278        C279   1.400       .  A
C278        H283   1.085       .  S
C279        C280   1.402       .  A
C280       Br281   1.919   1_554  S
C285        C290   1.390       .  A
C285        C934   1.401   1_545  A
C285        H292   1.083       .  S
C286        C287   1.407       .  A
C286        C933   1.400       .  A
C287        C288   1.387       .  A
C287       Br294   1.921       .  S
C288        C937   1.394       .  A
C288        H293   1.084       .  S
C289        C290   1.404   1_565  A
C289        C936   1.395       .  A
C290       Br291   1.922       .  S
C295        C296   1.400       .  A
C295        C300   1.394       .  A
C295        H302   1.083       .  S
C296        C945   1.406       .  A
C297        C298   1.386       .  A
C297        C944   1.407       .  A
C297       Br304   1.920       .  S
C298        C299   1.393       .  A
C298        H303   1.084       .  S
C299        C948   1.404   1_545  A
C300        C947   1.405       .  A
C300       Br301   1.917       .  S
C305        C306   1.400   1_655  A
C305       C1606   1.389       .  A
C305        H312   1.083       .  S
C306        C307   1.395       .  A
C307       C1604   1.392       .  A
C307       Br314   1.917       .  S
C308        C309   1.412       .  A
C308       C1603   1.394       .  A
C308        H313   1.081       .  S
C309        C310   1.404       .  A
C310       C1601   1.389       .  A
C310       Br311   1.918       .  S
C315        C320   1.392       .  A
C315       C1612   1.401   1_455  A
C315        H322   1.083       .  S
C316        C317   1.396       .  A
C316       C1611   1.403       .  A
C317        C318   1.391       .  A
C317       Br324   1.919       .  S
C318       C1615   1.409       .  A
C318        H323   1.079       .  S
C319        C320   1.407   1_655  A
C319       C1614   1.408       .  A
C320       Br321   1.921       .  S
C325        C326   1.533       .  S
C325        C331   1.565       .  S
C325        C329   1.595       .  S
C325        C459   1.626       .  S
C326        H333   1.087       .  S
C326        C327   1.365       .  D
C327        C328   1.585       .  S
C327        C369   1.529       .  S
C328        C332   1.601       .  S
C328        C330   1.578       .  S
C328        H334   1.110       .  S
C329        H335   1.084       .  S
C329        C330   1.408       .  D
C330        C414   1.588       .  S
C331        H336   1.085       .  S
C331        C332   1.385       .  D
C332        C492   1.578       .  S
C337        C338   1.549       .  S
C337        C343   1.559       .  S
C337        C341   1.553       .  S
C337        C528   1.618       .  S
C338        H345   1.085       .  S
C338        C339   1.386       .  D
C339        C340   1.609       .  S
C339        C469   1.579       .  S
C340        C344   1.607       .  S
C340        C342   1.570       .  S
C340        H346   1.110       .  S
C341        H347   1.087       .  S
C341        C342   1.382       .  D
C342        C379   1.527       .  S
C343        H348   1.085       .  S
C343        C344   1.392       .  D
C344        C424   1.593       .  S
N349        N350   1.320       .  A
N349        N355   1.319       .  A
N349      Mn1026   2.224       .  S
N350        C357   1.352       .  A
N351       N1649   1.318       .  A
N351        N352   1.309       .  A
N351       Mn367   2.194       .  S
N352       C1654   1.346       .  A
N353       N1647   1.317   1_455  A
N353        N354   1.318       .  A
N353       Mn378   2.161       .  S
N354        C358   1.350   1_455  A
N355        N356   1.311       .  A
N355      Mn2311   2.139   1_455  S
N356        C357   1.339       .  A
C357        C610   1.441       .  S
C358       N1648   1.348       .  A
C358        C643   1.458       .  S
N359        N365   1.310       .  A
N359       Mn713   2.203   1_546  S
N361        N362   1.329       .  A
N361        N363   1.317       .  A
N361      Mn1015   2.224       .  S
N362        C369   1.358       .  A
N363        N364   1.338       .  A
N364        C369   1.366       .  A
N365        N366   1.303       .  A
N365       Mn367   2.124       .  S
N366        C368   1.334       .  A
Mn367      N2299   2.138       .  S
Mn367      N1009   2.226   1_545  S
Mn367      Cl391   2.521   1_556  S
C368        C593   1.443       .  S
N370        N371   1.334       .  A
N370        N376   1.316       .  A
N371        C379   1.362       .  A
N372        N373   1.307       .  A
N372       Mn390   2.141       .  S
N373        C380   1.339       .  A
N374        N375   1.322       .  A
N374      Mn1026   2.194   1_554  S
N376        N377   1.331       .  A
N376      Mn1038   2.240   1_545  S
N377        C379   1.361       .  A
Mn378       N997   2.225       .  S
Mn378      N1022   2.166   1_546  S
Mn378     Cl1687   2.575   1_456  S
C380        C600   1.456       .  S
N381        N382   1.323       .  A
N381        N387   1.320       .  A
N381       Mn389   2.178       .  S
N382        C392   1.352       .  A
N383        N384   1.313       .  A
N383        N385   1.320   1_545  A
N383      Mn2334   2.154   1_545  S
N384        C393   1.341       .  A
N385        N386   1.320   1_565  A
N385      Mn1037   2.226       .  S
N386        C393   1.351       .  A
N387       N1684   1.309       .  A
N387      Mn1686   2.198       .  S
N388       N1683   1.309       .  A
N388       C1688   1.344       .  A
Mn389       N683   2.178       .  S
Mn389      N1033   2.237       .  S
Mn389      Cl715   2.574       .  S
Mn390      N1024   2.237       .  S
Mn390      N2327   2.151   1_455  S
Mn390      N1683   2.196       .  S
Mn390     Cl2011   2.524   1_455  S
Cl391     Mn1674   2.574   1_554  S
Cl391      Mn713   2.573   1_545  S
Cl391     Mn2010   2.523   1_545  S
C392       N1684   1.344       .  A
C392        C633   1.463       .  S
C393        C623   1.446       .  S
N394        N395   1.307       .  A
N394        N400   1.323       .  A
N395        C402   1.339   1_554  A
N396        N398   1.321       .  A
N396        N397   1.319       .  A
N396       Mn412   2.247       .  S
N397        C403   1.359       .  A
N398        N399   1.313       .  A
N398       Mn423   2.144       .  S
N399        C403   1.340       .  A
N400        N401   1.321   1_554  A
N401        C402   1.348       .  A
C402        C590   1.434       .  S
C403        C580   1.462       .  S
N404        N410   1.310       .  A
N404        N405   1.321       .  A
N405        C413   1.358       .  A
N406        N407   1.347       .  A
N406        N408   1.316       .  A
N407        C414   1.380       .  A
N408        N409   1.341       .  A
N408       Mn434   2.291       .  S
N409        C414   1.370       .  A
N410        N411   1.322       .  A
N410       Mn412   2.205       .  S
N411        C413   1.357       .  A
Mn412      Cl436   2.598       .  S
C413        C550   1.493       .  S
N415        N416   1.331       .  A
N415        N421   1.317       .  A
N415       Mn423   2.252       .  S
N416        C424   1.361       .  A
N417        N419   1.309   1_556  A
N417        N418   1.322       .  A
N417       Mn435   2.206       .  S
N418        C425   1.357       .  A
N419        N420   1.322   1_554  A
N420        C425   1.358       .  A
N421        N422   1.356       .  A
N422        C424   1.389       .  A
Mn423      Cl436   2.530       .  S
C425        C563   1.499       .  S
N426        N427   1.313       .  A
N426        N432   1.323       .  A
N426       Mn434   2.155       .  S
N427        C437   1.342       .  A
N428        N429   1.325       .  A
N428        N430   1.327       .  A
N429        C438   1.354       .  A
N430        N431   1.308       .  A
N431        C438   1.337       .  A
N432        N433   1.318       .  A
N432       Mn435   2.242       .  S
N433        C437   1.356       .  A
C437        C570   1.463       .  S
C438        C603   1.444       .  S
N439        N440   1.324       .  A
N439        N445   1.317       .  A
N439       Mn468   2.256       .  S
N440        C447   1.361       .  A
N441        N443   1.320       .  A
N441       N1738   1.323       .  A
N441       Mn457   2.272       .  S
N442       N1737   1.322       .  A
N442        C448   1.359       .  A
N443       N1740   1.311       .  A
N443       Mn468   2.126       .  S
N444       N1739   1.310       .  A
N444        C448   1.336       .  A
N445        N446   1.306       .  A
N445       Mn457   2.112       .  S
N446        C447   1.334       .  A
C447        C583   1.454       .  S
C448        C630   1.447       .  S
N449        N455   1.313       .  A
N449        N450   1.319       .  A
N449       Mn479   2.175       .  S
N450        C458   1.347       .  A
N451        N452   1.346       .  A
N451        N453   1.314       .  A
N451       Mn457   2.330       .  S
N452        C459   1.378       .  A
N453        N454   1.343       .  A
N453      Mn1775   2.303       .  S
N454        C459   1.374       .  A
N455        N456   1.318       .  A
N455      Mn1753   2.169   1_455  S
N456        C458   1.346       .  A
Mn457      N1751   2.177       .  S
Mn457      Cl481   2.535       .  S
C458        C543   1.474       .  S
N460        N461   1.348       .  A
N460        N466   1.314       .  A
N460      Mn1764   2.317   1_455  S
N461        C469   1.377       .  A
N462        N464   1.315       .  A
N462        N463   1.317       .  A
N462      Mn1776   2.164       .  S
N463        C470   1.343       .  A
N464        N465   1.319       .  A
N464       Mn468   2.172       .  S
N465        C470   1.346       .  A
N466        N467   1.335       .  A
N466       Mn480   2.287       .  S
N467        C469   1.369       .  A
Mn468      N1756   2.314       .  S
Mn468      Cl481   2.548       .  S
C470        C533   1.458       .  S
N471       N1768   1.310   1_455  A
N471        N477   1.317       .  A
N471       Mn479   2.124       .  S
N472       N1767   1.311       .  A
N472        C482   1.337       .  A
N473        N474   1.310       .  A
N473        N475   1.319       .  A
N473       Mn480   2.135       .  S
N474        C483   1.339       .  A
N475        N476   1.322       .  A
N475       Mn479   2.255       .  S
N476        C483   1.358       .  A
N477       N1774   1.321   1_455  A
N477       Mn480   2.246       .  S
N478       N1773   1.321       .  A
N478        C482   1.357       .  A
Mn479      N1749   2.303   1_455  S
Mn479     Cl1777   2.545       .  S
Mn480      N1758   2.172   1_455  S
Mn480     Cl1777   2.539       .  S
Cl481     Mn1775   2.549       .  S
Cl481     Mn1776   2.536       .  S
C482        C640   1.444       .  S
C483        C573   1.458       .  S
N484        N485   1.346       .  A
N484        N490   1.319       .  A
N484       Mn513   2.331       .  S
N485        C492   1.376       .  A
N486        N488   1.310   1_545  A
N486        N487   1.315       .  A
N486       Mn502   2.166       .  S
N487        C493   1.347       .  A
N488        N489   1.328       .  A
N488      Mn1161   2.234       .  S
N489        C493   1.362   1_565  A
N490        N491   1.340       .  A
N490      Mn1150   2.280       .  S
N491        C492   1.367       .  A
C493        C560   1.477       .  S
N494        N500   1.325       .  A
N494        N495   1.322       .  A
N494       Mn524   2.214       .  S
N495        C503   1.357       .  A
N496        N497   1.326       .  A
N496        N498   1.321       .  A
N496      Mn1150   2.217       .  S
N497        C504   1.357       .  A
N498        N499   1.305       .  A
N498      Mn1172   2.161       .  S
N499        C504   1.336       .  A
N500        N501   1.311       .  A
N500       Mn502   2.225       .  S
N501        C503   1.336       .  A
Mn502      N1138   2.289   1_545  S
Mn502      N1144   2.212       .  S
Mn502      Cl526   2.536       .  S
C503        C530   1.475       .  S
C504        C620   1.450       .  S
N505        N506   1.308       .  A
N505        N511   1.323       .  A
N505      Mn1161   2.179       .  S
N506        C514   1.340       .  A
N507        N509   1.324       .  A
N507        N508   1.310       .  A
N507       Mn525   2.218       .  S
N508        C515   1.344       .  A
N509        N510   1.325       .  A
N509       Mn513   2.227       .  S
N510        C515   1.363       .  A
N511        N512   1.323       .  A
N511      Mn1173   2.211       .  S
N512        C514   1.355       .  A
Mn513      N1136   2.238       .  S
Mn513      N1153   2.195       .  S
Mn513     Cl1174   2.588       .  S
C514        C613   1.455       .  S
C515        C540   1.483       .  S
N516        N517   1.327       .  A
N516        N522   1.309       .  A
N516      Mn1172   2.220       .  S
N517        C527   1.360       .  A
N518        N519   1.343       .  A
N518        N520   1.320       .  A
N518      Mn1173   2.302   1_545  S
N519        C528   1.373       .  A
N520        N521   1.344       .  A
N520       Mn524   2.310       .  S
N521        C528   1.373       .  A
N522        N523   1.314       .  A
N522       Mn525   2.157       .  S
N523        C527   1.347       .  A
Mn524      N1146   2.171       .  S
Mn524      N1164   2.224       .  S
Mn524      Cl526   2.588       .  S
Mn525      N1159   2.199       .  S
Mn525      N1166   2.304       .  S
Mn525     Cl1174   2.538       .  S
Cl526     Mn1161   2.591   1_545  S
Cl526     Mn1173   2.538   1_545  S
C527        C553   1.475       .  S
C529        C530   1.399       .  A
C529        C534   1.397       .  A
C529        H536   1.083       .  S
C530        C531   1.430       .  A
C531        C532   1.386       .  A
C531       Br538   1.928       .  S
C532        C533   1.386       .  A
C532        H537   1.084       .  S
C533        C534   1.408       .  A
C534       Br535   1.908       .  S
C539        C540   1.411       .  A
C539        C544   1.393       .  A
C539        H546   1.085       .  S
C540        C541   1.398       .  A
C541        C542   1.400       .  A
C541       Br548   1.913       .  S
C542        C543   1.411       .  A
C542        H547   1.080       .  S
C543        C544   1.409       .  A
C544       Br545   1.923       .  S
C549        C550   1.406       .  A
C549        C554   1.397       .  A
C549        H556   1.082       .  S
C550        C551   1.419       .  A
C551        C552   1.406       .  A
C551       Br558   1.919       .  S
C552        C553   1.402       .  A
C552        H557   1.084       .  S
C553        C554   1.407       .  A
C554       Br555   1.920       .  S
C559        C560   1.400       .  A
C559        C564   1.404       .  A
C559        H566   1.085       .  S
C560        C561   1.407       .  A
C561        C562   1.402       .  A
C561       Br568   1.919       .  S
C562        C563   1.410       .  A
C562        H567   1.084       .  S
C563        C564   1.421       .  A
C564       Br565   1.920       .  S
C569        C570   1.396       .  A
C569        C574   1.389       .  A
C569        H576   1.084       .  S
C570        C571   1.409       .  A
C571        C572   1.391       .  A
C571       Br578   1.923       .  S
C572        C573   1.398       .  A
C572        H577   1.078       .  S
C573        C574   1.415       .  A
C574       Br575   1.924       .  S
C579        C580   1.395       .  A
C579        C584   1.387       .  A
C579        H586   1.084       .  S
C580        C581   1.412       .  A
C581        C582   1.391       .  A
C581       Br588   1.921       .  S
C582        C583   1.397       .  A
C582        H587   1.083       .  S
C583        C584   1.416       .  A
C584       Br585   1.925       .  S
C589        C590   1.396       .  A
C589        C594   1.387       .  A
C589        H596   1.084       .  S
C590        C591   1.402   1_556  A
C591        C592   1.391       .  A
C591       Br598   1.918       .  S
C592        C593   1.400   1_554  A
C592        H597   1.086       .  S
C593        C594   1.407       .  A
C594       Br595   1.920       .  S
C599        C600   1.400       .  A
C599        C604   1.391       .  A
C599        H606   1.085       .  S
C600        C601   1.412       .  A
C601        C602   1.390       .  A
C601       Br608   1.922       .  S
C602        C603   1.395       .  A
C602        H607   1.086       .  S
C603        C604   1.406       .  A
C604       Br605   1.919       .  S
C609       C1258   1.399   1_545  A
C609        C614   1.392       .  A
C609        H616   1.084       .  S
C610       C1257   1.398       .  A
C610        C611   1.400       .  A
C611        C612   1.389       .  A
C611       Br618   1.921       .  S
C612       C1261   1.402       .  A
C612        H617   1.085       .  S
C613       C1260   1.406       .  A
C613        C614   1.407   1_565  A
C614       Br615   1.920       .  S
C619        C620   1.398       .  A
C619        C624   1.395       .  A
C619        H626   1.083       .  S
C620       C1269   1.411       .  A
C621       C1268   1.408       .  A
C621        C622   1.389       .  A
C621       Br628   1.921       .  S
C622        C623   1.394       .  A
C622        H627   1.084       .  S
C623       C1272   1.405   1_545  A
C624       C1271   1.406       .  A
C624       Br625   1.919       .  S
C629        C630   1.402   1_655  A
C629       C1930   1.392       .  A
C629        H636   1.083       .  S
C630        C631   1.395       .  A
C631       C1928   1.393       .  A
C631       Br638   1.916       .  S
C632       C1927   1.392       .  A
C632        C633   1.409       .  A
C632        H637   1.081       .  S
C633        C634   1.403       .  A
C634       C1925   1.393       .  A
C634       Br635   1.918       .  S
C639       C1936   1.399   1_455  A
C639        C644   1.388       .  A
C639        H646   1.085       .  S
C640       C1935   1.400       .  A
C640        C641   1.398       .  A
C641        C642   1.391       .  A
C641       Br648   1.919       .  S
C642       C1939   1.409       .  A
C642        H647   1.090       .  S
C643       C1938   1.407       .  A
C643        C644   1.408   1_655  A
C644       Br645   1.923       .  S
C649        C650   1.535       .  S
C649        C655   1.564       .  S
C649        C653   1.597       .  S
C649        C783   1.627       .  S
C650        H657   1.087       .  S
C650        C651   1.366       .  D
C651        C652   1.581       .  S
C651        C693   1.524       .  S
C652        C656   1.595       .  S
C652        C654   1.575       .  S
C652        H658   1.110       .  S
C653        H659   1.084       .  S
C653        C654   1.409       .  D
C654        C738   1.588       .  S
C655        H660   1.085       .  S
C655        C656   1.385       .  D
C656        C816   1.570       .  S
C661        C662   1.540       .  S
C661        C667   1.549       .  S
C661        C665   1.556       .  S
C661        C852   1.598       .  S
C662        H669   1.086       .  S
C662        C663   1.382       .  D
C663        C664   1.600       .  S
C663        C793   1.560       .  S
C664        C668   1.600       .  S
C664        C666   1.570       .  S
C664        H670   1.110       .  S
C665        H671   1.087       .  S
C665        C666   1.382       .  D
C666        C703   1.531       .  S
C667        H672   1.085       .  S
C667        C668   1.387       .  D
C668        C748   1.575       .  S
N673        N674   1.318       .  A
N673        N679   1.319       .  A
N674        C681   1.350       .  A
N675       N1973   1.318       .  A
N675        N676   1.309       .  A
N675       Mn691   2.195       .  S
N676       C1978   1.346       .  A
N677       N1971   1.318   1_455  A
N677        N678   1.321       .  A
N677       Mn702   2.176       .  S
N678        C682   1.354   1_455  A
N679        N680   1.313   1_545  A
N679      Mn1339   2.149   1_455  S
N680        C681   1.342   1_565  A
C681        C934   1.448   1_545  S
C682       N1972   1.346       .  A
C682        C967   1.464       .  S
N683        N689   1.309       .  A
N683       N1008   1.320       .  A
N684       N1007   1.322   1_554  A
N684       C1016   1.358   1_554  A
N685        N686   1.328       .  A
N685        N687   1.318       .  A
N686        C693   1.358       .  A
N687        N688   1.337       .  A
N687      Mn1037   2.283       .  S
N688        C693   1.366       .  A
N689        N690   1.305       .  A
N689       Mn691   2.139       .  S
N690        C692   1.337       .  A
Mn691      N1327   2.150       .  S
Mn691      Cl715   2.522       .  S
C692       N1008   1.358       .  A
C692        C917   1.443       .  S
N694        N695   1.336       .  A
N694        N700   1.318       .  A
N694      Mn1026   2.282   1_554  S
N695        C703   1.364       .  A
N696       N1022   1.308       .  A
N696        N697   1.304       .  A
N696       Mn714   2.131       .  S
N697        C704   1.337       .  A
N698       N1020   1.310       .  A
N698        N699   1.320       .  A
N699       C1028   1.357       .  A
N700        N701   1.331       .  A
N701        C703   1.360       .  A
Mn702      N1018   2.267       .  S
Mn702     Cl2011   2.571   1_455  S
C704       N1023   1.354       .  A
C704        C924   1.431       .  S
N705        N706   1.322       .  A
N705        N711   1.321       .  A
N705       Mn713   2.193       .  S
N706        C716   1.354       .  A
N707        N708   1.313       .  A
N707        N709   1.320       .  A
N707      Mn1362   2.149       .  S
N708        C717   1.340       .  A
N709        N710   1.320       .  A
N710        C717   1.351       .  A
N711       N2008   1.310       .  A
N711      Mn2010   2.195       .  S
N712       N2007   1.308       .  A
N712       C2012   1.342       .  A
Mn713      N1011   2.283   1_554  S
Mn714      N1355   2.149   1_465  S
Mn714      N2007   2.192       .  S
Mn714     Cl1687   2.521   1_465  S
Cl715     Mn1998   2.570       .  S
Cl715     Mn1686   2.525       .  S
C716       N2008   1.344       .  A
C716        C957   1.463       .  S
C717        C947   1.446       .  S
N718        N719   1.306       .  A
N718        N724   1.322       .  A
N718      Mn1071   2.183       .  S
N719        C726   1.339       .  A
N720        N722   1.322       .  A
N720        N721   1.320       .  A
N720       Mn736   2.251       .  S
N721        C727   1.358       .  A
N722        N723   1.315       .  A
N722       Mn747   2.164       .  S
N723        C727   1.343       .  A
N724        N725   1.320       .  A
N724      Mn1060   2.173       .  S
N725        C726   1.347       .  A
C726        C914   1.429       .  S
C727        C904   1.467       .  S
N728        N734   1.308       .  A
N728        N729   1.322       .  A
N728      Mn1082   2.198   1_554  S
N729        C737   1.358       .  A
N730        N731   1.347       .  A
N730        N732   1.315       .  A
N730      Mn1060   2.334       .  S
N731        C738   1.380       .  A
N732        N733   1.342       .  A
N732       Mn758   2.295       .  S
N733        C738   1.370       .  A
N734        N735   1.322       .  A
N734       Mn736   2.207       .  S
N735        C737   1.358       .  A
Mn736      N1048   2.198       .  S
Mn736      N1054   2.345   1_554  S
Mn736      Cl760   2.588       .  S
C737        C874   1.498       .  S
N739        N740   1.329       .  A
N739        N745   1.315       .  A
N739       Mn747   2.245       .  S
N740        C748   1.361       .  A
N741        N743   1.308       .  A
N741        N742   1.319       .  A
N741       Mn759   2.181       .  S
N742        C749   1.353       .  A
N743        N744   1.321       .  A
N743      Mn1071   2.205       .  S
N744        C749   1.360       .  A
N745        N746   1.351       .  A
N745      Mn1083   2.341   1_554  S
N746        C748   1.382       .  A
Mn747      N1042   2.166       .  S
Mn747      N1067   2.217       .  S
Mn747      Cl760   2.532       .  S
C749        C887   1.493       .  S
N750        N751   1.308       .  A
N750        N756   1.322       .  A
N750       Mn758   2.145       .  S
N751        C761   1.338       .  A
N752        N753   1.321       .  A
N752        N754   1.324   1_554  A
N752      Mn1083   2.188   1_554  S
N753        C762   1.350       .  A
N754        N755   1.304   1_556  A
N754      Mn1082   2.183       .  S
N755        C762   1.336       .  A
N756        N757   1.322       .  A
N756       Mn759   2.253       .  S
N757        C761   1.360       .  A
Mn758      N1052   2.205       .  S
Mn758      N1078   2.203       .  S
Mn758     Cl1084   2.540       .  S
Mn759      N1069   2.360       .  S
Mn759      N1076   2.204       .  S
Mn759     Cl1084   2.600       .  S
Cl760     Mn1082   2.541   1_554  S
Cl760     Mn1083   2.597   1_554  S
C761        C894   1.462       .  S
C762        C927   1.428       .  S
N763        N764   1.326       .  A
N763        N769   1.317       .  A
N763       Mn792   2.265       .  S
N764        C771   1.363       .  A
N765        N767   1.318       .  A
N765       N2062   1.322       .  A
N765       Mn781   2.272       .  S
N766       N2061   1.322       .  A
N766        C772   1.362       .  A
N767       N2064   1.311       .  A
N767       Mn792   2.122       .  S
N768       N2063   1.311       .  A
N768        C772   1.339       .  A
N769        N770   1.307       .  A
N769       Mn781   2.118       .  S
N770        C771   1.334       .  A
C771        C907   1.462       .  S
C772        C954   1.448       .  S
N773        N779   1.313       .  A
N773        N774   1.319       .  A
N773       Mn803   2.173       .  S
N774        C782   1.347       .  A
N775        N776   1.346       .  A
N775        N777   1.315       .  A
N775       Mn781   2.334       .  S
N776        C783   1.379       .  A
N777        N778   1.344       .  A
N777      Mn2099   2.303       .  S
N778        C783   1.375       .  A
N779        N780   1.321       .  A
N779      Mn2077   2.183   1_455  S
N780        C782   1.348       .  A
Mn781      N2075   2.182       .  S
Mn781      Cl805   2.526       .  S
C782        C867   1.483       .  S
N784        N785   1.345       .  A
N784        N790   1.312       .  A
N784      Mn2088   2.298   1_455  S
N785        C793   1.374       .  A
N786        N788   1.314       .  A
N786        N787   1.316       .  A
N786      Mn2100   2.156       .  S
N787        C794   1.342       .  A
N788        N789   1.318       .  A
N788       Mn792   2.173       .  S
N789        C794   1.347       .  A
N790        N791   1.329       .  A
N790       Mn804   2.258       .  S
N791        C793   1.365       .  A
Mn792      N2080   2.313       .  S
Mn792      Cl805   2.551       .  S
C794        C857   1.454       .  S
N795       N2092   1.310   1_455  A
N795        N801   1.318       .  A
N795       Mn803   2.123       .  S
N796       N2091   1.310       .  A
N796        C806   1.337       .  A
N797        N798   1.306       .  A
N797        N799   1.316       .  A
N797       Mn804   2.118       .  S
N798        C807   1.334       .  A
N799        N800   1.324       .  A
N799       Mn803   2.253       .  S
N800        C807   1.361       .  A
N801       N2098   1.321   1_455  A
N801       Mn804   2.238       .  S
N802       N2097   1.320       .  A
N802        C806   1.355       .  A
Mn803      N2073   2.308   1_455  S
Mn803     Cl2101   2.554       .  S
Mn804      N2082   2.153   1_455  S
Mn804     Cl2101   2.530       .  S
Cl805     Mn2099   2.555       .  S
Cl805     Mn2100   2.528       .  S
C806        C964   1.440       .  S
C807        C897   1.458       .  S
N808        N809   1.344       .  A
N808        N814   1.318       .  A
N808       Mn837   2.323       .  S
N809        C816   1.375       .  A
N810        N812   1.310       .  A
N810        N811   1.312       .  A
N810       Mn826   2.156       .  S
N811        C817   1.344       .  A
N812        N813   1.330       .  A
N813        C817   1.363       .  A
N814        N815   1.339       .  A
N815        C816   1.366       .  A
C817        C884   1.477       .  S
N818        N824   1.324       .  A
N818        N819   1.322       .  A
N818       Mn848   2.216       .  S
N819        C827   1.357       .  A
N820        N821   1.322       .  A
N820        N822   1.320       .  A
N821        C828   1.353       .  A
N822        N823   1.308       .  A
N823        C828   1.340       .  A
N824        N825   1.312       .  A
N824       Mn826   2.215       .  S
N825        C827   1.335       .  A
Mn826      Cl850   2.524       .  S
C827        C854   1.473       .  S
C828        C944   1.446       .  S
N829        N830   1.312       .  A
N829        N835   1.322       .  A
N830        C838   1.345       .  A
N831        N833   1.324       .  A
N831        N832   1.313       .  A
N831       Mn849   2.213       .  S
N832        C839   1.346       .  A
N833        N834   1.323       .  A
N833       Mn837   2.223       .  S
N834        C839   1.360       .  A
N835        N836   1.317       .  A
N836        C838   1.344       .  A
C838        C937   1.435       .  S
C839        C864   1.483       .  S
N840        N841   1.325       .  A
N840        N846   1.310       .  A
N841        C851   1.359   1_545  A
N842        N843   1.337       .  A
N842        N844   1.319       .  A
N843        C852   1.365       .  A
N844        N845   1.341       .  A
N844       Mn848   2.300       .  S
N845        C852   1.372       .  A
N846        N847   1.314   1_545  A
N846       Mn849   2.165   1_545  S
N847        C851   1.348       .  A
Mn848      Cl850   2.587       .  S
C851        C877   1.470       .  S
C853        C854   1.398       .  A
C853        C858   1.395       .  A
C853        H860   1.083       .  S
C854        C855   1.431       .  A
C855        C856   1.386       .  A
C855       Br862   1.929       .  S
C856        C857   1.386       .  A
C856        H861   1.085       .  S
C857        C858   1.406       .  A
C858       Br859   1.910       .  S
C863        C864   1.407       .  A
C863        C868   1.397       .  A
C863        H870   1.087       .  S
C864        C865   1.398       .  A
C865        C866   1.400       .  A
C865       Br872   1.914       .  S
C866        C867   1.412       .  A
C866        H871   1.084       .  S
C867        C868   1.413       .  A
C868       Br869   1.920       .  S
C873        C874   1.412       .  A
C873        C878   1.404       .  A
C873        H880   1.082       .  S
C874        C875   1.419       .  A
C875        C876   1.400       .  A
C875       Br882   1.916       .  S
C876        C877   1.398       .  A
C876        H881   1.084       .  S
C877        C878   1.404       .  A
C878       Br879   1.919   1_565  S
C883        C884   1.401       .  A
C883        C888   1.406       .  A
C883        H890   1.082       .  S
C884        C885   1.408       .  A
C885        C886   1.397       .  A
C885       Br892   1.920       .  S
C886        C887   1.405       .  A
C886        H891   1.085       .  S
C887        C888   1.421       .  A
C888       Br889   1.922       .  S
C893        C894   1.396       .  A
C893        C898   1.391       .  A
C893        H900   1.083       .  S
C894        C895   1.411       .  A
C895        C896   1.387       .  A
C895       Br902   1.926       .  S
C896        C897   1.393       .  A
C896        H901   1.081       .  S
C897        C898   1.420       .  A
C898       Br899   1.925       .  S
C903        C904   1.395       .  A
C903        C908   1.390       .  A
C903        H910   1.081       .  S
C904        C905   1.409       .  A
C905        C906   1.394       .  A
C905       Br912   1.918       .  S
C906        C907   1.398       .  A
C906        H911   1.083       .  S
C907        C908   1.418       .  A
C908       Br909   1.925       .  S
C913        C914   1.395       .  A
C913        C918   1.387       .  A
C913        H920   1.084       .  S
C914        C915   1.401       .  A
C915        C916   1.386       .  A
C915       Br922   1.920       .  S
C916        C917   1.399       .  A
C916        H921   1.085       .  S
C917        C918   1.408       .  A
C918       Br919   1.919       .  S
C923        C924   1.399   1_556  A
C923        C928   1.388   1_556  A
C923        H930   1.083       .  S
C924        C925   1.401       .  A
C925        C926   1.384       .  A
C925       Br932   1.920       .  S
C926        C927   1.397       .  A
C926        H931   1.085       .  S
C927        C928   1.403       .  A
C928       Br929   1.921   1_554  S
C933        C938   1.387       .  A
C933        H940   1.083       .  S
C934        C935   1.405       .  A
C935        C936   1.388       .  A
C935       Br942   1.919       .  S
C936        H941   1.084       .  S
C937        C938   1.403       .  A
C938       Br939   1.922       .  S
C943        C944   1.401   1_565  A
C943        C948   1.394       .  A
C943        H950   1.083       .  S
C945        C946   1.387       .  A
C945       Br952   1.918       .  S
C946        C947   1.394       .  A
C946        H951   1.084       .  S
C948       Br949   1.918       .  S
C953        C954   1.400   1_655  A
C953       C2254   1.387       .  A
C953        H960   1.084       .  S
C954        C955   1.397       .  A
C955       C2252   1.394       .  A
C955       Br962   1.917       .  S
C956       C2251   1.393       .  A
C956        C957   1.411       .  A
C956        H961   1.081       .  S
C957        C958   1.405       .  A
C958       C2249   1.388       .  A
C958       Br959   1.919       .  S
C963       C2260   1.403   1_455  A
C963        C968   1.392       .  A
C963        H970   1.079       .  S
C964       C2259   1.401       .  A
C964        C965   1.396       .  A
C965        C966   1.389       .  A
C965       Br972   1.920       .  S
C966       C2263   1.408       .  A
C966        H971   1.085       .  S
C967       C2262   1.409       .  A
C967        C968   1.404   1_655  A
C968       Br969   1.920       .  S
C973        C974   1.534       .  S
C973        C979   1.561       .  S
C973        C977   1.590       .  S
C973       C1107   1.615       .  S
C974        H981   1.087       .  S
C974        C975   1.366       .  D
C975        C976   1.586       .  S
C975       C1017   1.531       .  S
C976        C980   1.605       .  S
C976        C978   1.585       .  S
C976        H982   1.110       .  S
C977        H983   1.085       .  S
C977        C978   1.404       .  D
C978       C1062   1.588       .  S
C979        H984   1.085       .  S
C979        C980   1.382       .  D
C980       C1140   1.578       .  S
C985        C986   1.546       .  S
C985        C991   1.560       .  S
C985        C989   1.551       .  S
C985       C1176   1.613       .  S
C986        H993   1.086       .  S
C986        C987   1.385       .  D
C987        C988   1.605       .  S
C987       C1117   1.573       .  S
C988        C992   1.607       .  S
C988        C990   1.571       .  S
C988        H994   1.110       .  S
C989        H995   1.087       .  S
C989        C990   1.381       .  D
C990       C1027   1.529       .  S
C991        H996   1.085       .  S
C991        C992   1.392       .  D
C992       C1072   1.592       .  S
N997        N998   1.320       .  A
N997       N1003   1.318       .  A
N998       C1005   1.352   1_545  A
N999       N2297   1.317       .  A
N999       N1000   1.310       .  A
N999      Mn1015   2.195       .  S
N1000      C2302   1.347       .  A
N1001      N2295   1.318   1_455  A
N1001      N1002   1.322       .  A
N1001     Mn1026   2.183       .  S
N1002      C1006   1.354   1_455  A
N1003      N1004   1.313   1_545  A
N1003     Mn1663   2.148   1_455  S
N1004      C1005   1.341       .  A
C1005      C1258   1.445       .  S
C1006      N2296   1.345       .  A
C1006      C1291   1.464       .  S
N1007      N1013   1.311       .  A
N1009      N1010   1.330       .  A
N1009      N1011   1.316       .  A
N1010      C1017   1.360       .  A
N1011      N1012   1.338       .  A
N1012      C1017   1.366       .  A
N1013      N1014   1.304       .  A
N1013     Mn1015   2.132       .  S
N1014      C1016   1.336       .  A
Mn1015     N1651   2.145       .  S
Mn1015    Cl1039   2.521   1_556  S
C1016      C1241   1.437       .  S
N1018      N1019   1.335       .  A
N1018      N1024   1.316       .  A
N1019      C1027   1.363       .  A
N1020      N1021   1.309       .  A
N1020     Mn1038   2.146       .  S
N1021      C1028   1.341       .  A
N1022      N1023   1.320       .  A
N1024      N1025   1.330       .  A
N1025      C1027   1.361       .  A
Mn1026    Cl2335   2.576   1_556  S
C1028      C1248   1.450       .  S
N1029      N1030   1.323       .  A
N1029      N1035   1.320       .  A
N1029     Mn1037   2.190       .  S
N1030      C1040   1.355       .  A
N1031      N1032   1.313       .  A
N1031      N1033   1.320       .  A
N1031     Mn1686   2.151       .  S
N1032      C1041   1.340       .  A
N1033      N1034   1.321       .  A
N1034      C1041   1.354       .  A
N1035      N2332   1.309       .  A
N1035     Mn2334   2.193       .  S
N1036      N2331   1.310   1_455  A
N1036      C2336   1.345   1_455  A
Mn1038     N1679   2.151   1_465  S
Mn1038     N2331   2.203   1_455  S
Mn1038    Cl1363   2.526   1_465  S
Cl1039    Mn2322   2.575   1_554  S
Cl1039    Mn1362   2.521       .  S
C1040      N2332   1.343       .  A
C1040      C1281   1.465       .  S
C1041      C1271   1.450       .  S
N1042      N1043   1.305       .  A
N1042      N1048   1.323       .  A
N1043      C1050   1.335   1_554  A
N1044      N1046   1.321       .  A
N1044      N1045   1.321       .  A
N1044     Mn1060   2.250       .  S
N1045      C1051   1.360       .  A
N1046      N1047   1.310       .  A
N1046     Mn1071   2.151       .  S
N1047      C1051   1.340       .  A
N1048      N1049   1.322   1_554  A
N1049      C1050   1.352       .  A
C1050      C1238   1.433       .  S
C1051      C1228   1.464       .  S
N1052      N1058   1.309       .  A
N1052      N1053   1.323       .  A
N1053      C1061   1.360       .  A
N1054      N1055   1.348       .  A
N1054      N1056   1.316       .  A
N1055      C1062   1.381       .  A
N1056      N1057   1.341       .  A
N1056     Mn1082   2.284       .  S
N1057      C1062   1.369       .  A
N1058      N1059   1.320       .  A
N1058     Mn1060   2.194       .  S
N1059      C1061   1.355       .  A
Mn1060    Cl1084   2.594       .  S
C1061      C1198   1.492       .  S
N1063      N1064   1.333       .  A
N1063      N1069   1.317       .  A
N1063     Mn1071   2.262       .  S
N1064      C1072   1.363       .  A
N1065      N1067   1.308   1_556  A
N1065      N1066   1.321       .  A
N1065     Mn1083   2.186       .  S
N1066      C1073   1.355       .  A
N1067      N1068   1.323   1_554  A
N1068      C1073   1.361       .  A
N1069      N1070   1.355       .  A
N1070      C1072   1.386       .  A
Mn1071    Cl1084   2.531       .  S
C1073      C1211   1.500       .  S
N1074      N1075   1.313       .  A
N1074      N1080   1.323       .  A
N1074     Mn1082   2.157       .  S
N1075      C1085   1.342       .  A
N1076      N1077   1.323       .  A
N1076      N1078   1.327       .  A
N1077      C1086   1.351       .  A
N1078      N1079   1.309       .  A
N1079      C1086   1.339       .  A
N1080      N1081   1.318       .  A
N1080     Mn1083   2.241       .  S
N1081      C1085   1.356       .  A
C1085      C1218   1.463       .  S
C1086      C1251   1.441       .  S
N1087      N1088   1.324       .  A
N1087      N1093   1.317       .  A
N1087     Mn1116   2.256       .  S
N1088      C1095   1.362       .  A
N1089      N1091   1.320       .  A
N1089      N2386   1.323       .  A
N1089     Mn1105   2.269       .  S
N1090      N2385   1.323       .  A
N1090      C1096   1.360       .  A
N1091      N2388   1.310       .  A
N1091     Mn1116   2.124       .  S
N1092      N2387   1.311       .  A
N1092      C1096   1.336       .  A
N1093      N1094   1.306       .  A
N1093     Mn1105   2.109       .  S
N1094      C1095   1.333       .  A
C1095      C1231   1.455       .  S
C1096      C1278   1.449       .  S
N1097      N1103   1.314       .  A
N1097      N1098   1.319       .  A
N1097     Mn1127   2.175       .  S
N1098      C1106   1.346       .  A
N1099      N1100   1.343       .  A
N1099      N1101   1.314       .  A
N1099     Mn1105   2.316       .  S
N1100      C1107   1.376       .  A
N1101      N1102   1.342       .  A
N1101     Mn2423   2.297       .  S
N1102      C1107   1.373       .  A
N1103      N1104   1.320       .  A
N1103     Mn2401   2.178   1_455  S
N1104      C1106   1.348       .  A
Mn1105     N2399   2.167       .  S
Mn1105    Cl1129   2.535       .  S
C1106      C1191   1.476       .  S
N1108      N1109   1.348       .  A
N1108      N1114   1.314       .  A
N1108     Mn2412   2.315   1_455  S
N1109      C1117   1.376       .  A
N1110      N1112   1.315       .  A
N1110      N1111   1.318       .  A
N1110     Mn2424   2.173       .  S
N1111      C1118   1.345       .  A
N1112      N1113   1.320       .  A
N1112     Mn1116   2.172       .  S
N1113      C1118   1.346       .  A
N1114      N1115   1.333       .  A
N1114     Mn1128   2.277       .  S
N1115      C1117   1.367       .  A
Mn1116     N2404   2.320       .  S
Mn1116    Cl1129   2.550       .  S
C1118      C1181   1.461       .  S
N1119      N2416   1.311   1_455  A
N1119      N1125   1.318       .  A
N1119     Mn1127   2.126       .  S
N1120      N2415   1.310       .  A
N1120      C1130   1.337       .  A
N1121      N1122   1.310       .  A
N1121      N1123   1.318       .  A
N1121     Mn1128   2.132       .  S
N1122      C1131   1.338       .  A
N1123      N1124   1.323       .  A
N1123     Mn1127   2.255       .  S
N1124      C1131   1.359       .  A
N1125      N2422   1.321   1_455  A
N1125     Mn1128   2.248       .  S
N1126      N2421   1.322       .  A
N1126      C1130   1.358       .  A
Mn1127     N2397   2.304   1_455  S
Mn1127    Cl2425   2.551       .  S
Mn1128     N2406   2.163   1_455  S
Mn1128    Cl2425   2.537       .  S
Cl1129    Mn2423   2.548       .  S
Cl1129    Mn2424   2.536       .  S
C1130      C1288   1.445       .  S
C1131      C1221   1.458       .  S
N1132      N1133   1.345       .  A
N1132      N1138   1.319       .  A
N1132     Mn1161   2.317       .  S
N1133      C1140   1.374       .  A
N1134      N1136   1.311       .  A
N1134      N1135   1.316       .  A
N1134     Mn1150   2.170       .  S
N1135      C1141   1.346       .  A
N1136      N1137   1.330       .  A
N1137      C1141   1.363       .  A
N1138      N1139   1.342       .  A
N1139      C1140   1.369       .  A
C1141      C1208   1.480       .  S
N1142      N1148   1.324       .  A
N1142      N1143   1.322       .  A
N1142     Mn1172   2.212       .  S
N1143      C1151   1.357       .  A
N1144      N1145   1.324       .  A
N1144      N1146   1.322       .  A
N1145      C1152   1.355       .  A
N1146      N1147   1.306       .  A
N1147      C1152   1.338       .  A
N1148      N1149   1.311       .  A
N1148     Mn1150   2.219       .  S
N1149      C1151   1.336       .  A
Mn1150    Cl1174   2.537       .  S
C1151      C1178   1.474       .  S
C1152      C1268   1.446       .  S
N1153      N1154   1.309       .  A
N1153      N1159   1.323       .  A
N1154      C1162   1.342       .  A
N1155      N1157   1.324       .  A
N1155      N1156   1.309       .  A
N1155     Mn1173   2.214       .  S
N1156      C1163   1.342       .  A
N1157      N1158   1.325       .  A
N1157     Mn1161   2.228       .  S
N1158      C1163   1.363       .  A
N1159      N1160   1.321       .  A
N1160      C1162   1.352       .  A
C1162      C1261   1.446       .  S
C1163      C1188   1.484       .  S
N1164      N1165   1.328       .  A
N1164      N1170   1.309   1_545  A
N1165      C1175   1.362   1_545  A
N1166      N1167   1.342       .  A
N1166      N1168   1.319       .  A
N1167      C1176   1.373       .  A
N1168      N1169   1.342       .  A
N1168     Mn1172   2.295       .  S
N1169      C1176   1.370       .  A
N1170      N1171   1.314       .  A
N1170     Mn1173   2.161       .  S
N1171      C1175   1.347       .  A
Mn1172    Cl1174   2.582       .  S
C1175      C1201   1.479       .  S
C1177      C1178   1.398       .  A
C1177      C1182   1.397       .  A
C1177      H1184   1.083       .  S
C1178      C1179   1.429       .  A
C1179      C1180   1.386       .  A
C1179     Br1186   1.929       .  S
C1180      C1181   1.387       .  A
C1180      H1185   1.084       .  S
C1181      C1182   1.409       .  A
C1182     Br1183   1.905       .  S
C1187      C1188   1.413       .  A
C1187      C1192   1.393       .  A
C1187      H1194   1.086       .  S
C1188      C1189   1.399       .  A
C1189      C1190   1.400       .  A
C1189     Br1196   1.915       .  S
C1190      C1191   1.411       .  A
C1190      H1195   1.086       .  S
C1191      C1192   1.408       .  A
C1192     Br1193   1.922       .  S
C1197      C1198   1.405       .  A
C1197      C1202   1.399       .  A
C1197      H1204   1.082       .  S
C1198      C1199   1.419       .  A
C1199      C1200   1.406       .  A
C1199     Br1206   1.920       .  S
C1200      C1201   1.401       .  A
C1200      H1205   1.084       .  S
C1201      C1202   1.409       .  A
C1202     Br1203   1.920       .  S
C1207      C1208   1.402       .  A
C1207      C1212   1.407       .  A
C1207      H1214   1.086       .  S
C1208      C1209   1.407       .  A
C1209      C1210   1.402       .  A
C1209     Br1216   1.917       .  S
C1210      C1211   1.408       .  A
C1210      H1215   1.085       .  S
C1211      C1212   1.423       .  A
C1212     Br1213   1.921       .  S
C1217      C1218   1.396       .  A
C1217      C1222   1.389       .  A
C1217      H1224   1.082       .  S
C1218      C1219   1.410       .  A
C1219      C1220   1.391       .  A
C1219     Br1226   1.922       .  S
C1220      C1221   1.397       .  A
C1220      H1225   1.081       .  S
C1221      C1222   1.416       .  A
C1222     Br1223   1.924       .  S
C1227      C1228   1.396       .  A
C1227      C1232   1.388       .  A
C1227      H1234   1.084       .  S
C1228      C1229   1.415       .  A
C1229      C1230   1.390       .  A
C1229     Br1236   1.923       .  S
C1230      C1231   1.395       .  A
C1230      H1235   1.083       .  S
C1231      C1232   1.416       .  A
C1232     Br1233   1.925       .  S
C1237      C1238   1.399       .  A
C1237      C1242   1.387       .  A
C1237      H1244   1.084       .  S
C1238      C1239   1.402   1_556  A
C1239      C1240   1.390       .  A
C1239     Br1246   1.920       .  S
C1240      C1241   1.399   1_554  A
C1240      H1245   1.086       .  S
C1241      C1242   1.403       .  A
C1242     Br1243   1.920       .  S
C1247      C1248   1.399       .  A
C1247      C1252   1.388       .  A
C1247      H1254   1.086       .  S
C1248      C1249   1.408       .  A
C1249      C1250   1.391       .  A
C1249     Br1256   1.921       .  S
C1250      C1251   1.397       .  A
C1250      H1255   1.086       .  S
C1251      C1252   1.403       .  A
C1252     Br1253   1.919       .  S
C1257      C1262   1.391       .  A
C1257      H1264   1.084       .  S
C1258      C1259   1.398       .  A
C1259      C1260   1.389       .  A
C1259     Br1266   1.920       .  S
C1260      H1265   1.084       .  S
C1261      C1262   1.406       .  A
C1262     Br1263   1.920       .  S
C1267      C1268   1.399   1_565  A
C1267      C1272   1.394       .  A
C1267      H1274   1.083       .  S
C1269      C1270   1.391       .  A
C1269     Br1276   1.923       .  S
C1270      C1271   1.394       .  A
C1270      H1275   1.083       .  S
C1272     Br1273   1.919       .  S
C1277      C1278   1.404   1_655  A
C1277      C2578   1.393       .  A
C1277      H1284   1.084       .  S
C1278      C1279   1.397       .  A
C1279      C2576   1.392       .  A
C1279     Br1286   1.915       .  S
C1280      C2575   1.392       .  A
C1280      C1281   1.410       .  A
C1280      H1285   1.079       .  S
C1281      C1282   1.402       .  A
C1282      C2573   1.392       .  A
C1282     Br1283   1.918       .  S
C1287      C2584   1.400   1_455  A
C1287      C1292   1.391       .  A
C1287      H1294   1.087       .  S
C1288      C2583   1.400       .  A
C1288      C1289   1.398       .  A
C1289      C1290   1.391       .  A
C1289     Br1296   1.918       .  S
C1290      C2587   1.408       .  A
C1290      H1295   1.089       .  S
C1291      C2586   1.409       .  A
C1291      C1292   1.408   1_655  A
C1292     Br1293   1.920       .  S
C1297      C1298   1.534       .  S
C1297      C1303   1.564       .  S
C1297      C1301   1.598       .  S
C1297      C1431   1.629       .  S
C1298      H1305   1.087       .  S
C1298      C1299   1.366       .  D
C1299      C1300   1.581       .  S
C1299      C1341   1.524       .  S
C1300      C1304   1.595       .  S
C1300      C1302   1.576       .  S
C1300      H1306   1.110       .  S
C1301      H1307   1.084       .  S
C1301      C1302   1.410       .  D
C1302      C1386   1.590       .  S
C1303      H1308   1.085       .  S
C1303      C1304   1.385       .  D
C1304      C1464   1.570       .  S
C1309      C1310   1.541       .  S
C1309      C1315   1.549       .  S
C1309      C1313   1.555       .  S
C1309      C1500   1.598       .  S
C1310      H1317   1.086       .  S
C1310      C1311   1.382       .  D
C1311      C1312   1.599       .  S
C1311      C1441   1.560       .  S
C1312      C1316   1.600       .  S
C1312      C1314   1.568       .  S
C1312      H1318   1.110       .  S
C1313      H1319   1.087       .  S
C1313      C1314   1.382       .  D
C1314      C1351   1.528       .  S
C1315      H1320   1.085       .  S
C1315      C1316   1.387       .  D
C1316      C1396   1.575       .  S
N1321      N1322   1.318       .  A
N1321      N1327   1.319       .  A
N1321     Mn1998   2.214       .  S
N1322      C1329   1.350       .  A
N1323      N1324   1.309       .  A
N1323     Mn1339   2.198       .  S
N1325      N1326   1.320       .  A
N1325     Mn1350   2.172       .  S
N1326      C1330   1.353       .  A
N1327      N1328   1.314       .  A
N1328      C1329   1.343       .  A
C1329      C1582   1.449       .  S
C1330      C1615   1.463       .  S
N1331      N1337   1.309       .  A
N1331      N1656   1.320       .  A
N1331     Mn2333   2.176   1_545  S
N1332      N1655   1.322   1_554  A
N1332      C1664   1.359   1_554  A
N1333      N1334   1.328       .  A
N1333      N1335   1.317       .  A
N1333     Mn1987   2.221       .  S
N1334      C1341   1.358       .  A
N1335      N1336   1.337       .  A
N1335     Mn1685   2.282       .  S
N1336      C1341   1.365       .  A
N1337      N1338   1.304       .  A
N1337     Mn1339   2.135       .  S
N1338      C1340   1.337       .  A
Mn1339     N1981   2.229   1_545  S
Mn1339    Cl1363   2.521       .  S
C1340      N1656   1.357       .  A
C1340      C1565   1.438       .  S
N1342      N1343   1.335       .  A
N1342      N1348   1.318       .  A
N1342     Mn1674   2.276   1_554  S
N1343      C1351   1.363       .  A
N1344      N1670   1.308       .  A
N1344      N1345   1.304       .  A
N1344     Mn1362   2.130       .  S
N1345      C1352   1.337       .  A
N1346      N1668   1.310       .  A
N1346      N1347   1.320       .  A
N1346     Mn1998   2.190       .  S
N1347      C1676   1.357       .  A
N1348      N1349   1.331       .  A
N1348     Mn2010   2.234   1_545  S
N1349      C1351   1.360       .  A
Mn1350     N1969   2.208       .  S
Mn1350     N1666   2.262       .  S
Mn1350     N1994   2.196       .  S
C1352      N1671   1.356       .  A
C1352      C1572   1.433       .  S
N1353      N1354   1.323       .  A
N1353      N1359   1.321   1_655  A
N1353     Mn1361   2.195       .  S
N1354      C1364   1.355   1_655  A
N1355      N1356   1.313       .  A
N1355      N1357   1.321   1_545  A
N1356      C1365   1.340       .  A
N1357      N1358   1.321       .  A
N1357     Mn2009   2.229       .  S
N1358      C1365   1.352   1_565  A
Mn1361     N2303   2.202   1_554  S
Mn1361     N1659   2.287   1_554  S
Mn1361     N2005   2.223       .  S
Mn1361    Cl2335   2.576   1_655  S
Mn1362     N1996   2.243       .  S
Cl1363    Mn2333   2.574   1_545  S
C1364      C1605   1.463       .  S
C1365      C1595   1.446       .  S
N1366      N1367   1.306       .  A
N1366      N1372   1.322       .  A
N1366     Mn1719   2.184       .  S
N1367      C1374   1.339       .  A
N1368      N1370   1.322       .  A
N1368      N1369   1.321       .  A
N1368     Mn1384   2.255       .  S
N1369      C1375   1.359       .  A
N1370      N1371   1.314       .  A
N1370     Mn1395   2.159       .  S
N1371      C1375   1.342       .  A
N1372      N1373   1.320       .  A
N1372     Mn1708   2.173       .  S
N1373      C1374   1.347       .  A
C1374      C1562   1.428       .  S
C1375      C1552   1.466       .  S
N1376      N1382   1.308       .  A
N1376      N1377   1.321       .  A
N1376     Mn1730   2.196   1_554  S
N1377      C1385   1.357       .  A
N1378      N1379   1.347       .  A
N1378      N1380   1.315       .  A
N1378     Mn1708   2.334       .  S
N1379      C1386   1.380       .  A
N1380      N1381   1.342       .  A
N1380     Mn1406   2.298       .  S
N1381      C1386   1.371       .  A
N1382      N1383   1.323       .  A
N1382     Mn1384   2.207       .  S
N1383      C1385   1.358       .  A
Mn1384     N1696   2.200       .  S
Mn1384     N1702   2.348   1_554  S
Mn1384    Cl1408   2.590       .  S
C1385      C1522   1.497       .  S
N1387      N1388   1.329       .  A
N1387      N1393   1.314       .  A
N1387     Mn1395   2.244       .  S
N1388      C1396   1.361       .  A
N1389      N1391   1.307       .  A
N1389      N1390   1.320       .  A
N1389     Mn1407   2.181       .  S
N1390      C1397   1.354       .  A
N1391      N1392   1.320       .  A
N1391     Mn1719   2.200       .  S
N1392      C1397   1.359       .  A
N1393      N1394   1.352       .  A
N1393     Mn1731   2.339   1_554  S
N1394      C1396   1.382       .  A
Mn1395     N1690   2.163       .  S
Mn1395     N1715   2.212       .  S
Mn1395    Cl1408   2.529       .  S
C1397      C1535   1.493       .  S
N1398      N1399   1.308       .  A
N1398      N1404   1.322       .  A
N1398     Mn1406   2.143       .  S
N1399      C1409   1.339       .  A
N1400      N1401   1.321       .  A
N1400      N1402   1.325   1_554  A
N1400     Mn1731   2.190   1_554  S
N1401      C1410   1.350       .  A
N1402      N1403   1.305   1_556  A
N1402     Mn1730   2.187       .  S
N1403      C1410   1.337       .  A
N1404      N1405   1.321       .  A
N1404     Mn1407   2.250       .  S
N1405      C1409   1.359       .  A
Mn1406     N1700   2.201       .  S
Mn1406     N1726   2.207       .  S
Mn1406    Cl1732   2.542       .  S
Mn1407     N1717   2.362       .  S
Mn1407     N1724   2.203       .  S
Mn1407    Cl1732   2.599       .  S
Cl1408    Mn1730   2.540   1_554  S
Cl1408    Mn1731   2.598   1_554  S
C1409      C1542   1.461       .  S
C1410      C1575   1.429       .  S
N1411      N1412   1.326       .  A
N1411      N1417   1.317       .  A
N1411     Mn1440   2.267       .  S
N1412      C1419   1.364       .  A
N1413      N1415   1.319       .  A
N1413     Mn1429   2.270   1_455  S
N1414      C1420   1.362       .  A
N1415     Mn1440   2.122   1_455  S
N1416      C1420   1.339       .  A
N1417      N1418   1.307       .  A
N1417     Mn1429   2.119       .  S
N1418      C1419   1.334       .  A
C1419      C1555   1.464       .  S
C1420      C1602   1.451       .  S
N1421      N1427   1.313       .  A
N1421      N1422   1.320       .  A
N1421     Mn1451   2.173       .  S
N1422      C1430   1.347       .  A
N1423      N1424   1.346       .  A
N1423      N1425   1.315       .  A
N1423     Mn1429   2.336       .  S
N1424      C1431   1.379       .  A
N1425      N1426   1.344       .  A
N1426      C1431   1.375       .  A
N1427      N1428   1.320       .  A
N1428      C1430   1.348       .  A
Mn1429    Cl1453   2.527   1_655  S
C1430      C1515   1.482       .  S
N1432      N1433   1.345       .  A
N1432      N1438   1.312       .  A
N1433      C1441   1.374       .  A
N1434      N1436   1.314       .  A
N1434      N1435   1.316       .  A
N1435      C1442   1.342       .  A
N1436      N1437   1.317       .  A
N1436     Mn1440   2.171       .  S
N1437      C1442   1.346       .  A
N1438      N1439   1.329       .  A
N1438     Mn1452   2.257       .  S
N1439      C1441   1.364       .  A
Mn1440    Cl1453   2.552   1_655  S
C1442      C1505   1.451       .  S
N1443      N1449   1.318       .  A
N1443     Mn1451   2.123       .  S
N1444      C1454   1.337       .  A
N1445      N1446   1.307       .  A
N1445      N1447   1.317       .  A
N1445     Mn1452   2.121       .  S
N1446      C1455   1.335       .  A
N1447      N1448   1.323       .  A
N1447     Mn1451   2.254       .  S
N1448      C1455   1.361       .  A
N1449     Mn1452   2.236       .  S
N1450      C1454   1.354   1_455  A
C1454      C1612   1.440       .  S
C1455      C1545   1.458       .  S
N1456      N1457   1.344       .  A
N1456      N1462   1.318       .  A
N1456     Mn1485   2.322       .  S
N1457      C1464   1.375       .  A
N1458      N1460   1.310   1_545  A
N1458      N1459   1.313       .  A
N1458     Mn1474   2.157       .  S
N1459      C1465   1.345       .  A
N1460      N1461   1.329       .  A
N1460     Mn2133   2.232       .  S
N1461      C1465   1.362   1_565  A
N1462      N1463   1.339       .  A
N1462     Mn2122   2.274       .  S
N1463      C1464   1.366       .  A
C1465      C1532   1.476       .  S
N1466      N1472   1.324       .  A
N1466      N1467   1.322       .  A
N1466     Mn1496   2.215       .  S
N1467      C1475   1.357       .  A
N1468      N1469   1.322       .  A
N1468      N1470   1.320       .  A
N1468     Mn2122   2.198       .  S
N1469      C1476   1.353       .  A
N1470      N1471   1.307       .  A
N1470     Mn2144   2.169       .  S
N1471      C1476   1.340       .  A
N1472      N1473   1.312       .  A
N1472     Mn1474   2.217       .  S
N1473      C1475   1.336       .  A
Mn1474     N2110   2.275   1_545  S
Mn1474     N2116   2.205       .  S
Mn1474    Cl1498   2.525       .  S
C1475      C1502   1.473       .  S
C1476      C1592   1.444       .  S
N1477      N1478   1.312       .  A
N1477      N1483   1.321       .  A
N1477     Mn2133   2.199       .  S
N1478      C1486   1.345       .  A
N1479      N1481   1.324       .  A
N1479      N1480   1.313       .  A
N1479     Mn1497   2.218       .  S
N1480      C1487   1.347       .  A
N1481      N1482   1.323       .  A
N1481     Mn1485   2.219       .  S
N1482      C1487   1.359       .  A
N1483      N1484   1.316       .  A
N1483     Mn2145   2.170       .  S
N1484      C1486   1.344       .  A
Mn1485     N2108   2.230       .  S
Mn1485     N2125   2.203       .  S
Mn1485    Cl2146   2.585       .  S
C1486      C1585   1.435       .  S
C1487      C1512   1.483       .  S
N1488      N1489   1.325       .  A
N1488      N1494   1.311       .  A
N1488     Mn2144   2.217       .  S
N1489      C1499   1.358       .  A
N1490      N1491   1.337       .  A
N1490      N1492   1.319       .  A
N1490     Mn2145   2.266   1_545  S
N1491      C1500   1.364       .  A
N1492      N1493   1.341       .  A
N1492     Mn1496   2.301       .  S
N1493      C1500   1.372       .  A
N1494      N1495   1.315       .  A
N1494     Mn1497   2.168       .  S
N1495      C1499   1.349       .  A
Mn1496     N2118   2.175       .  S
Mn1496     N2136   2.219       .  S
Mn1496    Cl1498   2.588       .  S
Mn1497     N2131   2.182       .  S
Mn1497     N2138   2.274       .  S
Mn1497    Cl2146   2.537       .  S
Cl1498    Mn2133   2.587   1_545  S
Cl1498    Mn2145   2.531   1_545  S
C1499      C1525   1.470       .  S
C1501      C1502   1.399       .  A
C1501      C1506   1.396       .  A
C1501      H1508   1.083       .  S
C1502      C1503   1.431       .  A
C1503      C1504   1.385       .  A
C1503     Br1510   1.928       .  S
C1504      C1505   1.385       .  A
C1504      H1509   1.085       .  S
C1505      C1506   1.406       .  A
C1506     Br1507   1.912       .  S
C1511      C1512   1.406       .  A
C1511      C1516   1.396       .  A
C1511      H1518   1.087       .  S
C1512      C1513   1.399       .  A
C1513      C1514   1.400       .  A
C1513     Br1520   1.913       .  S
C1514      C1515   1.411       .  A
C1514      H1519   1.086       .  S
C1515      C1516   1.414       .  A
C1516     Br1517   1.920       .  S
C1521      C1522   1.411       .  A
C1521      C1526   1.402       .  A
C1521      H1528   1.082       .  S
C1522      C1523   1.419       .  A
C1523      C1524   1.401       .  A
C1523     Br1530   1.918       .  S
C1524      C1525   1.399       .  A
C1524      H1529   1.084       .  S
C1525      C1526   1.404       .  A
C1526     Br1527   1.919       .  S
C1531      C1532   1.401       .  A
C1531      C1536   1.406       .  A
C1531      H1538   1.081       .  S
C1532      C1533   1.407       .  A
C1533      C1534   1.397       .  A
C1533     Br1540   1.919       .  S
C1534      C1535   1.406       .  A
C1534      H1539   1.085       .  S
C1535      C1536   1.421       .  A
C1536     Br1537   1.922       .  S
C1541      C1542   1.395       .  A
C1541      C1546   1.390       .  A
C1541      H1548   1.083       .  S
C1542      C1543   1.411       .  A
C1543      C1544   1.387       .  A
C1543     Br1550   1.926       .  S
C1544      C1545   1.394       .  A
C1544      H1549   1.083       .  S
C1545      C1546   1.419       .  A
C1546     Br1547   1.924       .  S
C1551      C1552   1.395       .  A
C1551      C1556   1.390       .  A
C1551      H1558   1.082       .  S
C1552      C1553   1.411       .  A
C1553      C1554   1.393       .  A
C1553     Br1560   1.920       .  S
C1554      C1555   1.398       .  A
C1554      H1559   1.083       .  S
C1555      C1556   1.419       .  A
C1556     Br1557   1.925       .  S
C1561      C1562   1.395       .  A
C1561      C1566   1.386       .  A
C1561      H1568   1.084       .  S
C1562      C1563   1.401       .  A
C1563      C1564   1.387       .  A
C1563     Br1570   1.920       .  S
C1564      C1565   1.399       .  A
C1564      H1569   1.086       .  S
C1565      C1566   1.406       .  A
C1566     Br1567   1.919       .  S
C1571      C1572   1.399       .  A
C1571      C1576   1.388       .  A
C1571      H1578   1.083   1_554  S
C1572      C1573   1.402       .  A
C1573      C1574   1.386       .  A
C1573     Br1580   1.920       .  S
C1574      C1575   1.398       .  A
C1574      H1579   1.085       .  S
C1575      C1576   1.403       .  A
C1576     Br1577   1.921   1_554  S
C1581      C2230   1.400       .  A
C1581      C1586   1.388       .  A
C1581      H1588   1.084       .  S
C1582      C2229   1.400       .  A
C1582      C1583   1.405       .  A
C1583      C1584   1.389       .  A
C1583     Br1590   1.919       .  S
C1584      C2233   1.396       .  A
C1584      H1589   1.084       .  S
C1585      C2232   1.394       .  A
C1585      C1586   1.403   1_565  A
C1586     Br1587   1.923       .  S
C1591      C1592   1.400       .  A
C1591      C1596   1.392       .  A
C1591      H1598   1.083       .  S
C1592      C2241   1.408       .  A
C1593      C2240   1.406       .  A
C1593      C1594   1.387       .  A
C1593     Br1600   1.918       .  S
C1594      C1595   1.394       .  A
C1594      H1599   1.084       .  S
C1595      C2244   1.404   1_545  A
C1596      C2243   1.404       .  A
C1596     Br1597   1.919       .  S
C1601      C1602   1.401       .  A
C1601      H1608   1.084       .  S
C1602      C1603   1.398       .  A
C1603     Br1610   1.917       .  S
C1604      C1605   1.412       .  A
C1604      H1609   1.080       .  S
C1605      C1606   1.405   1_455  A
C1606     Br1607   1.919       .  S
C1611      C1616   1.392       .  A
C1611      H1618   1.079       .  S
C1612      C1613   1.396       .  A
C1613      C1614   1.389       .  A
C1613     Br1620   1.920       .  S
C1614      H1619   1.084       .  S
C1615      C1616   1.404       .  A
C1616     Br1617   1.920       .  S
C1621      C1622   1.534       .  S
C1621      C1627   1.563       .  S
C1621      C1625   1.590       .  S
C1621      C1755   1.619       .  S
C1622      H1629   1.087       .  S
C1622      C1623   1.367       .  D
C1623      C1624   1.588       .  S
C1623      C1665   1.533       .  S
C1624      C1628   1.607       .  S
C1624      C1626   1.586       .  S
C1624      H1630   1.110       .  S
C1625      H1631   1.085       .  S
C1625      C1626   1.404       .  D
C1626      C1710   1.590       .  S
C1627      H1632   1.085       .  S
C1627      C1628   1.383       .  D
C1628      C1788   1.581       .  S
C1633      C1634   1.545       .  S
C1633      C1639   1.561       .  S
C1633      C1637   1.549       .  S
C1633      C1824   1.610       .  S
C1634      H1641   1.086       .  S
C1634      C1635   1.384       .  D
C1635      C1636   1.606       .  S
C1635      C1765   1.573       .  S
C1636      C1640   1.607       .  S
C1636      C1638   1.570       .  S
C1636      H1642   1.110       .  S
C1637      H1643   1.087       .  S
C1637      C1638   1.379       .  D
C1638      C1675   1.523       .  S
C1639      H1644   1.085       .  S
C1639      C1640   1.393       .  D
C1640      C1720   1.592       .  S
N1645      N1646   1.320       .  A
N1645      N1651   1.319       .  A
N1645     Mn2322   2.226       .  S
N1646      C1653   1.352       .  A
N1647      N1648   1.311       .  A
N1647     Mn1663   2.197       .  S
N1649      N1650   1.321       .  A
N1649     Mn1674   2.179       .  S
N1650      C1654   1.354       .  A
N1651      N1652   1.313       .  A
N1652      C1653   1.340       .  A
C1653      C1906   1.444       .  S
C1654      C1939   1.462       .  S
N1655      N1661   1.311       .  A
N1655     Mn2009   2.192   1_546  S
N1657      N1658   1.330       .  A
N1657      N1659   1.316       .  A
N1657     Mn2311   2.228       .  S
N1658      C1665   1.360       .  A
N1659      N1660   1.339       .  A
N1660      C1665   1.367       .  A
N1661      N1662   1.304       .  A
N1661     Mn1663   2.132       .  S
N1662      C1664   1.337       .  A
Mn1663     N2305   2.225   1_545  S
Mn1663    Cl1687   2.522   1_556  S
C1664      C1889   1.439       .  S
N1666      N1667   1.334       .  A
N1666      N1672   1.316       .  A
N1667      C1675   1.362       .  A
N1668      N1669   1.309       .  A
N1668     Mn1686   2.149       .  S
N1669      C1676   1.341       .  A
N1670      N1671   1.320       .  A
N1670     Mn2322   2.174   1_554  S
N1672      N1673   1.329       .  A
N1672     Mn2334   2.231   1_545  S
N1673      C1675   1.360       .  A
Mn1674     N2293   2.217       .  S
Mn1674     N2318   2.188   1_556  S
C1676      C1896   1.451       .  S
N1677      N1678   1.323       .  A
N1677      N1683   1.320   1_655  A
N1677     Mn1685   2.190       .  S
N1678      C1688   1.355   1_655  A
N1679      N1680   1.313       .  A
N1679      N1681   1.320       .  A
N1680      C1689   1.340       .  A
N1681      N1682   1.321       .  A
N1681     Mn2333   2.233   1_545  S
N1682      C1689   1.353       .  A
Mn1685     N1979   2.191       .  S
Mn1685     N2329   2.224       .  S
Mn1685    Cl2011   2.574       .  S
Mn1686     N2320   2.235       .  S
Cl1687    Mn2009   2.577   1_545  S
C1688      C1929   1.464       .  S
C1689      C1919   1.448       .  S
N1690      N1691   1.304       .  A
N1690      N1696   1.322       .  A
N1691      C1698   1.334   1_554  A
N1692      N1694   1.321       .  A
N1692      N1693   1.321       .  A
N1692     Mn1708   2.250       .  S
N1693      C1699   1.359       .  A
N1694      N1695   1.311       .  A
N1694     Mn1719   2.149       .  S
N1695      C1699   1.339       .  A
N1696      N1697   1.323   1_554  A
N1697      C1698   1.352       .  A
C1698      C1886   1.433       .  S
C1699      C1876   1.463       .  S
N1700      N1706   1.310       .  A
N1700      N1701   1.321       .  A
N1701      C1709   1.359       .  A
N1702      N1703   1.348       .  A
N1702      N1704   1.317       .  A
N1703      C1710   1.381       .  A
N1704      N1705   1.341       .  A
N1704     Mn1730   2.288       .  S
N1705      C1710   1.369       .  A
N1706      N1707   1.320       .  A
N1706     Mn1708   2.195       .  S
N1707      C1709   1.355       .  A
Mn1708    Cl1732   2.594       .  S
C1709      C1846   1.490       .  S
N1711      N1712   1.333       .  A
N1711      N1717   1.317       .  A
N1711     Mn1719   2.263       .  S
N1712      C1720   1.363       .  A
N1713      N1715   1.308   1_556  A
N1713      N1714   1.322       .  A
N1713     Mn1731   2.191       .  S
N1714      C1721   1.356       .  A
N1715      N1716   1.322   1_554  A
N1716      C1721   1.360       .  A
N1717      N1718   1.355       .  A
N1718      C1720   1.386       .  A
Mn1719    Cl1732   2.532       .  S
C1721      C1859   1.500       .  S
N1722      N1723   1.314       .  A
N1722      N1728   1.323       .  A
N1722     Mn1730   2.160       .  S
N1723      C1733   1.343       .  A
N1724      N1725   1.323       .  A
N1724      N1726   1.327       .  A
N1725      C1734   1.350       .  A
N1726      N1727   1.310       .  A
N1727      C1734   1.340       .  A
N1728      N1729   1.317       .  A
N1728     Mn1731   2.235       .  S
N1729      C1733   1.354       .  A
C1733      C1866   1.463       .  S
C1734      C1899   1.442       .  S
N1735      N1736   1.323       .  A
N1735      N1741   1.317       .  A
N1735     Mn1764   2.252       .  S
N1736      C1743   1.360       .  A
N1737      N1739   1.320       .  A
N1737     Mn1753   2.266   1_455  S
N1738      C1744   1.360       .  A
N1739     Mn1764   2.125   1_455  S
N1740      C1744   1.336       .  A
N1741      N1742   1.307       .  A
N1741     Mn1753   2.110       .  S
N1742      C1743   1.334       .  A
C1743      C1879   1.454       .  S
C1744      C1926   1.448       .  S
N1745      N1751   1.314       .  A
N1745      N1746   1.319       .  A
N1745     Mn1775   2.172       .  S
N1746      C1754   1.346       .  A
N1747      N1748   1.343       .  A
N1747      N1749   1.314       .  A
N1747     Mn1753   2.317       .  S
N1748      C1755   1.376       .  A
N1749      N1750   1.343       .  A
N1750      C1755   1.374       .  A
N1751      N1752   1.320       .  A
N1752      C1754   1.348       .  A
Mn1753    Cl1777   2.539   1_655  S
C1754      C1839   1.474       .  S
N1756      N1757   1.348       .  A
N1756      N1762   1.314       .  A
N1757      C1765   1.376       .  A
N1758      N1760   1.315       .  A
N1758      N1759   1.318       .  A
N1759      C1766   1.345       .  A
N1760      N1761   1.320       .  A
N1760     Mn1764   2.170       .  S
N1761      C1766   1.345       .  A
N1762      N1763   1.332       .  A
N1762     Mn1776   2.274       .  S
N1763      C1765   1.367       .  A
Mn1764    Cl1777   2.546   1_655  S
C1766      C1829   1.460       .  S
N1767      N1773   1.317       .  A
N1767     Mn1775   2.123       .  S
N1768      C1778   1.337       .  A
N1769      N1770   1.310       .  A
N1769      N1771   1.318       .  A
N1769     Mn1776   2.133       .  S
N1770      C1779   1.339       .  A
N1771      N1772   1.323       .  A
N1771     Mn1775   2.254       .  S
N1772      C1779   1.359       .  A
N1773     Mn1776   2.245       .  S
N1774      C1778   1.358       .  A
C1778      C1936   1.443       .  S
C1779      C1869   1.457       .  S
N1780      N1781   1.346       .  A
N1780      N1786   1.319       .  A
N1780     Mn1809   2.322       .  S
N1781      C1788   1.375       .  A
N1782      N1784   1.311   1_545  A
N1782      N1783   1.315       .  A
N1782     Mn1798   2.168       .  S
N1783      C1789   1.346       .  A
N1784      N1785   1.330       .  A
N1784     Mn2457   2.239       .  S
N1785      C1789   1.363   1_565  A
N1786      N1787   1.342       .  A
N1786     Mn2446   2.291       .  S
N1787      C1788   1.369       .  A
C1789      C1856   1.481       .  S
N1790      N1796   1.324       .  A
N1790      N1791   1.321       .  A
N1790     Mn1820   2.207       .  S
N1791      C1799   1.356       .  A
N1792      N1793   1.323       .  A
N1792      N1794   1.322       .  A
N1792     Mn2446   2.207       .  S
N1793      C1800   1.354       .  A
N1794      N1795   1.306       .  A
N1794     Mn2468   2.173       .  S
N1795      C1800   1.338       .  A
N1796      N1797   1.311       .  A
N1796     Mn1798   2.221       .  S
N1797      C1799   1.337       .  A
Mn1798     N2434   2.281   1_545  S
Mn1798     N2440   2.215       .  S
Mn1798    Cl1822   2.535       .  S
C1799      C1826   1.473       .  S
C1800      C1916   1.445       .  S
N1801      N1802   1.309       .  A
N1801      N1807   1.323       .  A
N1801     Mn2457   2.193       .  S
N1802      C1810   1.342       .  A
N1803      N1805   1.324       .  A
N1803      N1804   1.309       .  A
N1803     Mn1821   2.216       .  S
N1804      C1811   1.343       .  A
N1805      N1806   1.325       .  A
N1805     Mn1809   2.231       .  S
N1806      C1811   1.363       .  A
N1807      N1808   1.321       .  A
N1807     Mn2469   2.195       .  S
N1808      C1810   1.351       .  A
Mn1809     N2432   2.234       .  S
Mn1809     N2449   2.180       .  S
Mn1809    Cl2470   2.591       .  S
C1810      C1909   1.444       .  S
C1811      C1836   1.484       .  S
N1812      N1813   1.327       .  A
N1812      N1818   1.309       .  A
N1812     Mn2468   2.219       .  S
N1813      C1823   1.360       .  A
N1814      N1815   1.342       .  A
N1814      N1816   1.319       .  A
N1814     Mn2469   2.301   1_545  S
N1815      C1824   1.373       .  A
N1816      N1817   1.341       .  A
N1816     Mn1820   2.289       .  S
N1817      C1824   1.369       .  A
N1818      N1819   1.314       .  A
N1818     Mn1821   2.162       .  S
N1819      C1823   1.348       .  A
Mn1820     N2442   2.158       .  S
Mn1820     N2460   2.219       .  S
Mn1820    Cl1822   2.580       .  S
Mn1821     N2455   2.211       .  S
Mn1821     N2462   2.304       .  S
Mn1821    Cl2470   2.539       .  S
Cl1822    Mn2457   2.587   1_545  S
Cl1822    Mn2469   2.537   1_545  S
C1823      C1849   1.476       .  S
C1825      C1826   1.398       .  A
C1825      C1830   1.397       .  A
C1825      H1832   1.083       .  S
C1826      C1827   1.429       .  A
C1827      C1828   1.385       .  A
C1827     Br1834   1.929       .  S
C1828      C1829   1.386       .  A
C1828      H1833   1.085       .  S
C1829      C1830   1.409       .  A
C1830     Br1831   1.905       .  S
C1835      C1836   1.412       .  A
C1835      C1840   1.393       .  A
C1835      H1842   1.086       .  S
C1836      C1837   1.399       .  A
C1837      C1838   1.400       .  A
C1837     Br1844   1.915       .  S
C1838      C1839   1.411       .  A
C1838      H1843   1.086       .  S
C1839      C1840   1.407       .  A
C1840     Br1841   1.923       .  S
C1845      C1846   1.405       .  A
C1845      C1850   1.398       .  A
C1845      H1852   1.082       .  S
C1846      C1847   1.418       .  A
C1847      C1848   1.405       .  A
C1847     Br1854   1.920       .  S
C1848      C1849   1.402       .  A
C1848      H1853   1.084       .  S
C1849      C1850   1.408       .  A
C1850     Br1851   1.920       .  S
C1855      C1856   1.403       .  A
C1855      C1860   1.408       .  A
C1855      H1862   1.085       .  S
C1856      C1857   1.406       .  A
C1857      C1858   1.400       .  A
C1857     Br1864   1.918       .  S
C1858      C1859   1.408       .  A
C1858      H1863   1.085       .  S
C1859      C1860   1.422       .  A
C1860     Br1861   1.921       .  S
C1865      C1866   1.397       .  A
C1865      C1870   1.388       .  A
C1865      H1872   1.082       .  S
C1866      C1867   1.409       .  A
C1867      C1868   1.392       .  A
C1867     Br1874   1.922       .  S
C1868      C1869   1.397       .  A
C1868      H1873   1.080       .  S
C1869      C1870   1.415       .  A
C1870     Br1871   1.924       .  S
C1875      C1876   1.396       .  A
C1875      C1880   1.388       .  A
C1875      H1882   1.084       .  S
C1876      C1877   1.415       .  A
C1877      C1878   1.389       .  A
C1877     Br1884   1.923       .  S
C1878      C1879   1.395       .  A
C1878      H1883   1.084       .  S
C1879      C1880   1.415       .  A
C1880     Br1881   1.924       .  S
C1885      C1886   1.398       .  A
C1885      C1890   1.388       .  A
C1885      H1892   1.084       .  S
C1886      C1887   1.403   1_556  A
C1887      C1888   1.389       .  A
C1887     Br1894   1.920       .  S
C1888      C1889   1.399   1_554  A
C1888      H1893   1.086       .  S
C1889      C1890   1.405       .  A
C1890     Br1891   1.921       .  S
C1895      C1896   1.400       .  A
C1895      C1900   1.389       .  A
C1895      H1902   1.085       .  S
C1896      C1897   1.409       .  A
C1897      C1898   1.391       .  A
C1897     Br1904   1.921       .  S
C1898      C1899   1.397       .  A
C1898      H1903   1.086       .  S
C1899      C1900   1.404       .  A
C1900     Br1901   1.920       .  S
C1905      C2554   1.398   1_545  A
C1905      C1910   1.391       .  A
C1905      H1912   1.084       .  S
C1906      C2553   1.399       .  A
C1906      C1907   1.398       .  A
C1907      C1908   1.390       .  A
C1907     Br1914   1.921       .  S
C1908      C2557   1.406       .  A
C1908      H1913   1.084       .  S
C1909      C2556   1.402       .  A
C1909      C1910   1.407   1_565  A
C1910     Br1911   1.921       .  S
C1915      C1916   1.399       .  A
C1915      C1920   1.394       .  A
C1915      H1922   1.083       .  S
C1916      C2565   1.408       .  A
C1917      C2564   1.411       .  A
C1917      C1918   1.390       .  A
C1917     Br1924   1.924       .  S
C1918      C1919   1.394       .  A
C1918      H1923   1.083       .  S
C1919      C2568   1.406   1_545  A
C1920      C2567   1.405       .  A
C1920     Br1921   1.919       .  S
C1925      C1926   1.403       .  A
C1925      H1932   1.083       .  S
C1926      C1927   1.396       .  A
C1927     Br1934   1.915       .  S
C1928      C1929   1.410       .  A
C1928      H1933   1.079       .  S
C1929      C1930   1.402   1_455  A
C1930     Br1931   1.918       .  S
C1935      C1940   1.390       .  A
C1935      H1942   1.087       .  S
C1936      C1937   1.398       .  A
C1937      C1938   1.391       .  A
C1937     Br1944   1.917       .  S
C1938      H1943   1.086       .  S
C1939      C1940   1.408       .  A
C1940     Br1941   1.920       .  S
C1945      C1946   1.537       .  S
C1945      C1951   1.564       .  S
C1945      C1949   1.594       .  S
C1945      C2079   1.627       .  S
C1946      H1953   1.087       .  S
C1946      C1947   1.368       .  D
C1947      C1948   1.580       .  S
C1947      C1989   1.527       .  S
C1948      C1952   1.596       .  S
C1948      C1950   1.579       .  S
C1948      H1954   1.110       .  S
C1949      H1955   1.084       .  S
C1949      C1950   1.407       .  D
C1950      C2034   1.588       .  S
C1951      H1956   1.085       .  S
C1951      C1952   1.385       .  D
C1952      C2112   1.571       .  S
C1957      C1958   1.542       .  S
C1957      C1963   1.551       .  S
C1957      C1961   1.557       .  S
C1957      C2148   1.606       .  S
C1958      H1965   1.086       .  S
C1958      C1959   1.383       .  D
C1959      C1960   1.604       .  S
C1959      C2089   1.568       .  S
C1960      C1964   1.605       .  S
C1960      C1962   1.572       .  S
C1960      H1966   1.110       .  S
C1961      H1967   1.086       .  S
C1961      C1962   1.383       .  D
C1962      C1999   1.535       .  S
C1963      H1968   1.085       .  S
C1963      C1964   1.388       .  D
C1964      C2044   1.582       .  S
N1969      N1970   1.317       .  A
N1969      N1975   1.318       .  A
N1970      C1977   1.350       .  A
N1971      N1972   1.309       .  A
N1971     Mn1987   2.193       .  S
N1973      N1974   1.321       .  A
N1973     Mn1998   2.174       .  S
N1974      C1978   1.353       .  A
N1975      N1976   1.313       .  A
N1976      C1977   1.342       .  A
C1977      C2230   1.445       .  S
C1978      C2263   1.462       .  S
N1979      N1985   1.309       .  A
N1979      N2304   1.322       .  A
N1980      N2303   1.323   1_554  A
N1980      C2312   1.361   1_554  A
N1981      N1982   1.329       .  A
N1981      N1983   1.317       .  A
N1982      C1989   1.359       .  A
N1983      N1984   1.337       .  A
N1983     Mn2333   2.284       .  S
N1984      C1989   1.366       .  A
N1985      N1986   1.304       .  A
N1985     Mn1987   2.129       .  S
N1986      C1988   1.336       .  A
Mn1987    Cl2011   2.521       .  S
C1988      N2304   1.361       .  A
C1988      C2213   1.446       .  S
N1990      N1991   1.336       .  A
N1990      N1996   1.318       .  A
N1990     Mn2322   2.281   1_554  S
N1991      C1999   1.364       .  A
N1992      N2318   1.308   1_565  A
N1992      N1993   1.305       .  A
N1992     Mn2010   2.131       .  S
N1993      C2000   1.337       .  A
N1994      N2316   1.310   1_545  A
N1994      N1995   1.322   1_545  A
N1995      C2324   1.359       .  A
N1996      N1997   1.332       .  A
N1997      C1999   1.362       .  A
Mn1998     N2314   2.269       .  S
C2000      N2319   1.358       .  A
C2000      C2220   1.440       .  S
N2001      N2002   1.323       .  A
N2001      N2007   1.321   1_655  A
N2001     Mn2009   2.193       .  S
N2002      C2012   1.356   1_655  A
N2003      N2004   1.312       .  A
N2003      N2005   1.320       .  A
N2004      C2013   1.339       .  A
N2005      N2006   1.319       .  A
N2006      C2013   1.350       .  A
Mn2009     N2307   2.288   1_554  S
C2012      C2253   1.461       .  S
C2013      C2243   1.441       .  S
N2014      N2015   1.305       .  A
N2014      N2020   1.323       .  A
N2014     Mn2367   2.177       .  S
N2015      C2022   1.337       .  A
N2016      N2018   1.322       .  A
N2016      N2017   1.319       .  A
N2016     Mn2032   2.254       .  S
N2017      C2023   1.359       .  A
N2018      N2019   1.314       .  A
N2018     Mn2043   2.157       .  S
N2019      C2023   1.343       .  A
N2020      N2021   1.322       .  A
N2020     Mn2356   2.190       .  S
N2021      C2022   1.350       .  A
C2022      C2210   1.432       .  S
C2023      C2200   1.467       .  S
N2024      N2030   1.308       .  A
N2024      N2025   1.326       .  A
N2024     Mn2378   2.208   1_554  S
N2025      C2033   1.361       .  A
N2026      N2027   1.348       .  A
N2026      N2028   1.315       .  A
N2026     Mn2356   2.341       .  S
N2027      C2034   1.381       .  A
N2028      N2029   1.341       .  A
N2028     Mn2054   2.285       .  S
N2029      C2034   1.368       .  A
N2030      N2031   1.319       .  A
N2030     Mn2032   2.200       .  S
N2031      C2033   1.354       .  A
Mn2032     N2344   2.185       .  S
Mn2032     N2350   2.340   1_554  S
Mn2032    Cl2056   2.582       .  S
C2033      C2170   1.500       .  S
N2035      N2036   1.331       .  A
N2035      N2041   1.316       .  A
N2035     Mn2043   2.258       .  S
N2036      C2044   1.363       .  A
N2037      N2039   1.308       .  A
N2037      N2038   1.323       .  A
N2037     Mn2055   2.194       .  S
N2038      C2045   1.357       .  A
N2039      N2040   1.320       .  A
N2039     Mn2367   2.199       .  S
N2040      C2045   1.358       .  A
N2041      N2042   1.352       .  A
N2041     Mn2379   2.342   1_554  S
N2042      C2044   1.383       .  A
Mn2043     N2338   2.183       .  S
Mn2043     N2363   2.207       .  S
Mn2043    Cl2056   2.541       .  S
C2045      C2183   1.494       .  S
N2046      N2047   1.308       .  A
N2046      N2052   1.323       .  A
N2046     Mn2054   2.141       .  S
N2047      C2057   1.338       .  A
N2048      N2049   1.324       .  A
N2048      N2050   1.326   1_554  A
N2048     Mn2379   2.206   1_554  S
N2049      C2058   1.352       .  A
N2050      N2051   1.306       .  A
N2050     Mn2378   2.191       .  S
N2051      C2058   1.337   1_556  A
N2052      N2053   1.321       .  A
N2052     Mn2055   2.257       .  S
N2053      C2057   1.360       .  A
Mn2054     N2348   2.203       .  S
Mn2054     N2374   2.196       .  S
Mn2054    Cl2380   2.539       .  S
Mn2055     N2365   2.369       .  S
Mn2055     N2372   2.214       .  S
Mn2055    Cl2380   2.602       .  S
Cl2056    Mn2378   2.553   1_554  S
Cl2056    Mn2379   2.591   1_554  S
C2057      C2190   1.460       .  S
C2058      C2223   1.436       .  S
N2059      N2060   1.326       .  A
N2059      N2065   1.318       .  A
N2059     Mn2088   2.257       .  S
N2060      C2067   1.361       .  A
N2061      N2063   1.318       .  A
N2061     Mn2077   2.268   1_455  S
N2062      C2068   1.362       .  A
N2063     Mn2088   2.127   1_455  S
N2064      C2068   1.337       .  A
N2065      N2066   1.308       .  A
N2065     Mn2077   2.128       .  S
N2066      C2067   1.336       .  A
C2067      C2203   1.461       .  S
C2068      C2250   1.448       .  S
N2069      N2075   1.313       .  A
N2069      N2070   1.318       .  A
N2069     Mn2099   2.174       .  S
N2070      C2078   1.346       .  A
N2071      N2072   1.346       .  A
N2071      N2073   1.315       .  A
N2071     Mn2077   2.331       .  S
N2072      C2079   1.378       .  A
N2073      N2074   1.344       .  A
N2074      C2079   1.375       .  A
N2075      N2076   1.322       .  A
N2076      C2078   1.349       .  A
Mn2077    Cl2101   2.529   1_655  S
C2078      C2163   1.481       .  S
N2080      N2081   1.348       .  A
N2080      N2086   1.312       .  A
N2081      C2089   1.376       .  A
N2082      N2084   1.314       .  A
N2082      N2083   1.315       .  A
N2083      C2090   1.342       .  A
N2084      N2085   1.317       .  A
N2084     Mn2088   2.176       .  S
N2085      C2090   1.347       .  A
N2086      N2087   1.330       .  A
N2086     Mn2100   2.261       .  S
N2087      C2089   1.365       .  A
Mn2088    Cl2101   2.549   1_655  S
C2090      C2153   1.452       .  S
N2091      N2097   1.317       .  A
N2091     Mn2099   2.120       .  S
N2092      C2102   1.336       .  A
N2093      N2094   1.307       .  A
N2093      N2095   1.317       .  A
N2093     Mn2100   2.123       .  S
N2094      C2103   1.335       .  A
N2095      N2096   1.323       .  A
N2095     Mn2099   2.251       .  S
N2096      C2103   1.360       .  A
N2097     Mn2100   2.236       .  S
N2098      C2102   1.356       .  A
C2102      C2260   1.442       .  S
C2103      C2193   1.456       .  S
N2104      N2105   1.344       .  A
N2104      N2110   1.319       .  A
N2104     Mn2133   2.321       .  S
N2105      C2112   1.374       .  A
N2106      N2108   1.309       .  A
N2106      N2107   1.313       .  A
N2106     Mn2122   2.155       .  S
N2107      C2113   1.345       .  A
N2108      N2109   1.330       .  A
N2109      C2113   1.363       .  A
N2110      N2111   1.339       .  A
N2111      C2112   1.366       .  A
C2113      C2180   1.478       .  S
N2114      N2120   1.325       .  A
N2114      N2115   1.323       .  A
N2114     Mn2144   2.222       .  S
N2115      C2123   1.357       .  A
N2116      N2117   1.322       .  A
N2116      N2118   1.321       .  A
N2117      C2124   1.353       .  A
N2118      N2119   1.308       .  A
N2119      C2124   1.341       .  A
N2120      N2121   1.311       .  A
N2120     Mn2122   2.214       .  S
N2121      C2123   1.334       .  A
Mn2122    Cl2146   2.528       .  S
C2123      C2150   1.473       .  S
C2124      C2240   1.445       .  S
N2125      N2126   1.312       .  A
N2125      N2131   1.323       .  A
N2126      C2134   1.343       .  A
N2127      N2129   1.324       .  A
N2127      N2128   1.312       .  A
N2127     Mn2145   2.207       .  S
N2128      C2135   1.345       .  A
N2129      N2130   1.323       .  A
N2129     Mn2133   2.229       .  S
N2130      C2135   1.362       .  A
N2131      N2132   1.319       .  A
N2132      C2134   1.347       .  A
C2134      C2233   1.440       .  S
C2135      C2160   1.483       .  S
N2136      N2137   1.326       .  A
N2136      N2142   1.310       .  A
N2137      C2147   1.360   1_545  A
N2138      N2139   1.338       .  A
N2138      N2140   1.319       .  A
N2139      C2148   1.366       .  A
N2140      N2141   1.343       .  A
N2140     Mn2144   2.308       .  S
N2141      C2148   1.374       .  A
N2142      N2143   1.314   1_545  A
N2142     Mn2145   2.161   1_545  S
N2143      C2147   1.348       .  A
Mn2144    Cl2146   2.585       .  S
C2147      C2173   1.471       .  S
C2149      C2150   1.398       .  A
C2149      C2154   1.395       .  A
C2149      H2156   1.083       .  S
C2150      C2151   1.431       .  A
C2151      C2152   1.386       .  A
C2151     Br2158   1.928       .  S
C2152      C2153   1.386       .  A
C2152      H2157   1.085       .  S
C2153      C2154   1.406       .  A
C2154     Br2155   1.910       .  S
C2159      C2160   1.409       .  A
C2159      C2164   1.398       .  A
C2159      H2166   1.087       .  S
C2160      C2161   1.397       .  A
C2161      C2162   1.398       .  A
C2161     Br2168   1.913       .  S
C2162      C2163   1.412       .  A
C2162      H2167   1.085       .  S
C2163      C2164   1.412       .  A
C2164     Br2165   1.920       .  S
C2169      C2170   1.412       .  A
C2169      C2174   1.407       .  A
C2169      H2176   1.082       .  S
C2170      C2171   1.422       .  A
C2171      C2172   1.399       .  A
C2171     Br2178   1.919       .  S
C2172      C2173   1.396       .  A
C2172      H2177   1.084       .  S
C2173      C2174   1.405       .  A
C2174     Br2175   1.919   1_565  S
C2179      C2180   1.403       .  A
C2179      C2184   1.408       .  A
C2179      H2186   1.084       .  S
C2180      C2181   1.408       .  A
C2181      C2182   1.396       .  A
C2181     Br2188   1.920       .  S
C2182      C2183   1.405       .  A
C2182      H2187   1.085       .  S
C2183      C2184   1.420       .  A
C2184     Br2185   1.920       .  S
C2189      C2190   1.395       .  A
C2189      C2194   1.389       .  A
C2189      H2196   1.085       .  S
C2190      C2191   1.413       .  A
C2191      C2192   1.386       .  A
C2191     Br2198   1.926       .  S
C2192      C2193   1.392       .  A
C2192      H2197   1.084       .  S
C2193      C2194   1.419       .  A
C2194     Br2195   1.925       .  S
C2199      C2200   1.394       .  A
C2199      C2204   1.387       .  A
C2199      H2206   1.083       .  S
C2200      C2201   1.412       .  A
C2201      C2202   1.395       .  A
C2201     Br2208   1.920       .  S
C2202      C2203   1.399       .  A
C2202      H2207   1.083       .  S
C2203      C2204   1.416       .  A
C2204     Br2205   1.922       .  S
C2209      C2210   1.395       .  A
C2209      C2214   1.388       .  A
C2209      H2216   1.084       .  S
C2210      C2211   1.402       .  A
C2211      C2212   1.388       .  A
C2211     Br2218   1.920       .  S
C2212      C2213   1.398       .  A
C2212      H2217   1.085       .  S
C2213      C2214   1.411       .  A
C2214     Br2215   1.919       .  S
C2219      C2220   1.400       .  A
C2219      C2224   1.390       .  A
C2219      H2226   1.084   1_554  S
C2220      C2221   1.404       .  A
C2221      C2222   1.389       .  A
C2221     Br2228   1.921       .  S
C2222      C2223   1.400       .  A
C2222      H2227   1.085       .  S
C2223      C2224   1.402       .  A
C2224     Br2225   1.918   1_554  S
C2229      C2234   1.390       .  A
C2229      H2236   1.083       .  S
C2230      C2231   1.406   1_545  A
C2231      C2232   1.387       .  A
C2231     Br2238   1.920       .  S
C2232      H2237   1.084       .  S
C2233      C2234   1.404       .  A
C2234     Br2235   1.921       .  S
C2239      C2240   1.400   1_565  A
C2239      C2244   1.394       .  A
C2239      H2246   1.083       .  S
C2241      C2242   1.385       .  A
C2241     Br2248   1.920       .  S
C2242      C2243   1.393       .  A
C2242      H2247   1.084       .  S
C2244     Br2245   1.916       .  S
C2249      C2250   1.400       .  A
C2249      H2256   1.083       .  S
C2250      C2251   1.396       .  A
C2251     Br2258   1.917       .  S
C2252      C2253   1.412       .  A
C2252      H2257   1.081       .  S
C2253      C2254   1.405   1_455  A
C2254     Br2255   1.918       .  S
C2259      C2264   1.391       .  A
C2259      H2266   1.083       .  S
C2260      C2261   1.396       .  A
C2261      C2262   1.391       .  A
C2261     Br2268   1.920       .  S
C2262      H2267   1.078       .  S
C2263      C2264   1.406       .  A
C2264     Br2265   1.920       .  S
C2269      C2270   1.534       .  S
C2269      C2275   1.566       .  S
C2269      C2273   1.596       .  S
C2269      C2403   1.629       .  S
C2270      H2277   1.087       .  S
C2270      C2271   1.366       .  D
C2271      C2272   1.584       .  S
C2271      C2313   1.529       .  S
C2272      C2276   1.601       .  S
C2272      C2274   1.576       .  S
C2272      H2278   1.110       .  S
C2273      H2279   1.084       .  S
C2273      C2274   1.408       .  D
C2274      C2358   1.587       .  S
C2275      H2280   1.085       .  S
C2275      C2276   1.386       .  D
C2276      C2436   1.579       .  S
C2281      C2282   1.550       .  S
C2281      C2287   1.558       .  S
C2281      C2285   1.554       .  S
C2281      C2472   1.619       .  S
C2282      H2289   1.085       .  S
C2282      C2283   1.386       .  D
C2283      C2284   1.611       .  S
C2283      C2413   1.582       .  S
C2284      C2288   1.608       .  S
C2284      C2286   1.569       .  S
C2284      H2290   1.110       .  S
C2285      H2291   1.086       .  S
C2285      C2286   1.383       .  D
C2286      C2323   1.528       .  S
C2287      H2292   1.085       .  S
C2287      C2288   1.392       .  D
C2288      C2368   1.593       .  S
N2293      N2294   1.319       .  A
N2293      N2299   1.319       .  A
N2294      C2301   1.351   1_545  A
N2295      N2296   1.309       .  A
N2295     Mn2311   2.195       .  S
N2297      N2298   1.320       .  A
N2297     Mn2322   2.169       .  S
N2298      C2302   1.352       .  A
N2299      N2300   1.310   1_545  A
N2300      C2301   1.338       .  A
C2301      C2554   1.438       .  S
C2302      C2587   1.461       .  S
N2303      N2309   1.310       .  A
N2305      N2306   1.329       .  A
N2305      N2307   1.317       .  A
N2306      C2313   1.358       .  A
N2307      N2308   1.338       .  A
N2308      C2313   1.367       .  A
N2309      N2310   1.304       .  A
N2309     Mn2311   2.128       .  S
N2310      C2312   1.335       .  A
Mn2311    Cl2335   2.521   1_656  S
C2312      C2537   1.444       .  S
N2314      N2315   1.336       .  A
N2314      N2320   1.316       .  A
N2315      C2323   1.364       .  A
N2316      N2317   1.308       .  A
N2316     Mn2334   2.146       .  S
N2317      C2324   1.339       .  A
N2318      N2319   1.321   1_545  A
N2320      N2321   1.330       .  A
N2321      C2323   1.360       .  A
C2324      C2544   1.455       .  S
N2325      N2326   1.322       .  A
N2325      N2331   1.320       .  A
N2325     Mn2333   2.174       .  S
N2326      C2336   1.351       .  A
N2327      N2328   1.312       .  A
N2327      N2329   1.321       .  A
N2328      C2337   1.340       .  A
N2329      N2330   1.320       .  A
N2330      C2337   1.351       .  A
C2336      C2577   1.463   1_655  S
C2337      C2567   1.443       .  S
N2338      N2339   1.307       .  A
N2338      N2344   1.322       .  A
N2339      C2346   1.339   1_554  A
N2340      N2342   1.321       .  A
N2340      N2341   1.319       .  A
N2340     Mn2356   2.251       .  S
N2341      C2347   1.359       .  A
N2342      N2343   1.313       .  A
N2342     Mn2367   2.143       .  S
N2343      C2347   1.340       .  A
N2344      N2345   1.322   1_554  A
N2345      C2346   1.349       .  A
C2346      C2534   1.435       .  S
C2347      C2524   1.463       .  S
N2348      N2354   1.310       .  A
N2348      N2349   1.321       .  A
N2349      C2357   1.359       .  A
N2350      N2351   1.347       .  A
N2350      N2352   1.316       .  A
N2351      C2358   1.380       .  A
N2352      N2353   1.341       .  A
N2352     Mn2378   2.291       .  S
N2353      C2358   1.370       .  A
N2354      N2355   1.321       .  A
N2354     Mn2356   2.201       .  S
N2355      C2357   1.356       .  A
Mn2356    Cl2380   2.596       .  S
C2357      C2494   1.493       .  S
N2359      N2360   1.331       .  A
N2359      N2365   1.317       .  A
N2359     Mn2367   2.254       .  S
N2360      C2368   1.361       .  A
N2361      N2363   1.309   1_556  A
N2361      N2362   1.320       .  A
N2361     Mn2379   2.197       .  S
N2362      C2369   1.355       .  A
N2363      N2364   1.323   1_554  A
N2364      C2369   1.360       .  A
N2365      N2366   1.356       .  A
N2366      C2368   1.388       .  A
Mn2367    Cl2380   2.531       .  S
C2369      C2507   1.498       .  S
N2370      N2371   1.313       .  A
N2370      N2376   1.323       .  A
N2370     Mn2378   2.155       .  S
N2371      C2381   1.342       .  A
N2372      N2373   1.324       .  A
N2372      N2374   1.327       .  A
N2373      C2382   1.353       .  A
N2374      N2375   1.309       .  A
N2375      C2382   1.338       .  A
N2376      N2377   1.318       .  A
N2376     Mn2379   2.244       .  S
N2377      C2381   1.356       .  A
C2381      C2514   1.464       .  S
C2382      C2547   1.443       .  S
N2383      N2384   1.324       .  A
N2383      N2389   1.318       .  A
N2383     Mn2412   2.259       .  S
N2384      C2391   1.362       .  A
N2385      N2387   1.321       .  A
N2385     Mn2401   2.273   1_455  S
N2386      C2392   1.360       .  A
N2387     Mn2412   2.128   1_455  S
N2388      C2392   1.336       .  A
N2389      N2390   1.306       .  A
N2389     Mn2401   2.108       .  S
N2390      C2391   1.333       .  A
C2391      C2527   1.453       .  S
C2392      C2574   1.447       .  S
N2393      N2399   1.313       .  A
N2393      N2394   1.318       .  A
N2393     Mn2423   2.172       .  S
N2394      C2402   1.347       .  A
N2395      N2396   1.347       .  A
N2395      N2397   1.314       .  A
N2395     Mn2401   2.334       .  S
N2396      C2403   1.379       .  A
N2397      N2398   1.344       .  A
N2398      C2403   1.375       .  A
N2399      N2400   1.317       .  A
N2400      C2402   1.346       .  A
Mn2401    Cl2425   2.535   1_655  S
C2402      C2487   1.471       .  S
N2404      N2405   1.349       .  A
N2404      N2410   1.314       .  A
N2405      C2413   1.377       .  A
N2406      N2408   1.315       .  A
N2406      N2407   1.317       .  A
N2407      C2414   1.343       .  A
N2408      N2409   1.318       .  A
N2408     Mn2412   2.173       .  S
N2409      C2414   1.346       .  A
N2410      N2411   1.335       .  A
N2410     Mn2424   2.290       .  S
N2411      C2413   1.370       .  A
Mn2412    Cl2425   2.549   1_655  S
C2414      C2477   1.457       .  S
N2415      N2421   1.317       .  A
N2415     Mn2423   2.122       .  S
N2416      C2426   1.338       .  A
N2417      N2418   1.310       .  A
N2417      N2419   1.319       .  A
N2417     Mn2424   2.137       .  S
N2418      C2427   1.339       .  A
N2419      N2420   1.323       .  A
N2419     Mn2423   2.254       .  S
N2420      C2427   1.359       .  A
N2421     Mn2424   2.250       .  S
N2422      C2426   1.357       .  A
C2426      C2584   1.446       .  S
C2427      C2517   1.458       .  S
N2428      N2429   1.346       .  A
N2428      N2434   1.319       .  A
N2428     Mn2457   2.334       .  S
N2429      C2436   1.377       .  A
N2430      N2432   1.310       .  A
N2430      N2431   1.315       .  A
N2430     Mn2446   2.162       .  S
N2431      C2437   1.346       .  A
N2432      N2433   1.328       .  A
N2433      C2437   1.362       .  A
N2434      N2435   1.340       .  A
N2435      C2436   1.367       .  A
C2437      C2504   1.476       .  S
N2438      N2444   1.325       .  A
N2438      N2439   1.323       .  A
N2438     Mn2468   2.213       .  S
N2439      C2447   1.357       .  A
N2440      N2441   1.326       .  A
N2440      N2442   1.320       .  A
N2441      C2448   1.357       .  A
N2442      N2443   1.304       .  A
N2443      C2448   1.336       .  A
N2444      N2445   1.311       .  A
N2444     Mn2446   2.225       .  S
N2445      C2447   1.336       .  A
Mn2446    Cl2470   2.537       .  S
C2447      C2474   1.475       .  S
C2448      C2564   1.448       .  S
N2449      N2450   1.308       .  A
N2449      N2455   1.323       .  A
N2450      C2458   1.340       .  A
N2451      N2453   1.324       .  A
N2451      N2452   1.309       .  A
N2451     Mn2469   2.215       .  S
N2452      C2459   1.343       .  A
N2453      N2454   1.325       .  A
N2453     Mn2457   2.229       .  S
N2454      C2459   1.363       .  A
N2455      N2456   1.323       .  A
N2456      C2458   1.355       .  A
C2458      C2557   1.453       .  S
C2459      C2484   1.483       .  S
N2460      N2461   1.327       .  A
N2460      N2466   1.308   1_545  A
N2461      C2471   1.360   1_545  A
N2462      N2463   1.343       .  A
N2462      N2464   1.320       .  A
N2463      C2472   1.373       .  A
N2464      N2465   1.344       .  A
N2464     Mn2468   2.312       .  S
N2465      C2472   1.373       .  A
N2466      N2467   1.314       .  A
N2466     Mn2469   2.155       .  S
N2467      C2471   1.347       .  A
Mn2468    Cl2470   2.589       .  S
C2471      C2497   1.475       .  S
C2473      C2474   1.399       .  A
C2473      C2478   1.396       .  A
C2473      H2480   1.083       .  S
C2474      C2475   1.430       .  A
C2475      C2476   1.387       .  A
C2475     Br2482   1.928       .  S
C2476      C2477   1.386       .  A
C2476      H2481   1.084       .  S
C2477      C2478   1.407       .  A
C2478     Br2479   1.908       .  S
C2483      C2484   1.412       .  A
C2483      C2488   1.393       .  A
C2483      H2490   1.085       .  S
C2484      C2485   1.397       .  A
C2485      C2486   1.399       .  A
C2485     Br2492   1.913       .  S
C2486      C2487   1.411       .  A
C2486      H2491   1.080       .  S
C2487      C2488   1.408       .  A
C2488     Br2489   1.924       .  S
C2493      C2494   1.406       .  A
C2493      C2498   1.398       .  A
C2493      H2500   1.082       .  S
C2494      C2495   1.419       .  A
C2495      C2496   1.405       .  A
C2495     Br2502   1.919       .  S
C2496      C2497   1.401       .  A
C2496      H2501   1.084       .  S
C2497      C2498   1.407       .  A
C2498     Br2499   1.920       .  S
C2503      C2504   1.400       .  A
C2503      C2508   1.404       .  A
C2503      H2510   1.085       .  S
C2504      C2505   1.406       .  A
C2505      C2506   1.403       .  A
C2505     Br2512   1.919       .  S
C2506      C2507   1.409       .  A
C2506      H2511   1.084       .  S
C2507      C2508   1.421       .  A
C2508     Br2509   1.921       .  S
C2513      C2514   1.396       .  A
C2513      C2518   1.389       .  A
C2513      H2520   1.083       .  S
C2514      C2515   1.409       .  A
C2515      C2516   1.392       .  A
C2515     Br2522   1.922       .  S
C2516      C2517   1.398       .  A
C2516      H2521   1.078       .  S
C2517      C2518   1.416       .  A
C2518     Br2519   1.924       .  S
C2523      C2524   1.394       .  A
C2523      C2528   1.387       .  A
C2523      H2530   1.084       .  S
C2524      C2525   1.412       .  A
C2525      C2526   1.391       .  A
C2525     Br2532   1.921       .  S
C2526      C2527   1.396       .  A
C2526      H2531   1.083       .  S
C2527      C2528   1.417       .  A
C2528     Br2529   1.925       .  S
C2533      C2534   1.396       .  A
C2533      C2538   1.387       .  A
C2533      H2540   1.084       .  S
C2534      C2535   1.402   1_556  A
C2535      C2536   1.391       .  A
C2535     Br2542   1.918       .  S
C2536      C2537   1.400   1_554  A
C2536      H2541   1.086       .  S
C2537      C2538   1.407       .  A
C2538     Br2539   1.920       .  S
C2543      C2544   1.400       .  A
C2543      C2548   1.391       .  A
C2543      H2550   1.085       .  S
C2544      C2545   1.411       .  A
C2545      C2546   1.390       .  A
C2545     Br2552   1.922       .  S
C2546      C2547   1.395       .  A
C2546      H2551   1.086       .  S
C2547      C2548   1.405       .  A
C2548     Br2549   1.919       .  S
C2553      C2558   1.392       .  A
C2553      H2560   1.084       .  S
C2554      C2555   1.399       .  A
C2555      C2556   1.387       .  A
C2555     Br2562   1.921       .  S
C2556      H2561   1.085       .  S
C2557      C2558   1.406       .  A
C2558     Br2559   1.920       .  S
C2563      C2564   1.398   1_565  A
C2563      C2568   1.394       .  A
C2563      H2570   1.083       .  S
C2565      C2566   1.387       .  A
C2565     Br2572   1.921       .  S
C2566      C2567   1.394       .  A
C2566      H2571   1.084       .  S
C2568     Br2569   1.919       .  S
C2573      C2574   1.403       .  A
C2573      H2580   1.083       .  S
C2574      C2575   1.395       .  A
C2575     Br2582   1.916       .  S
C2576      C2577   1.407       .  A
C2576      H2581   1.083       .  S
C2577      C2578   1.403   1_455  A
C2578     Br2579   1.919       .  S
C2583      C2588   1.389       .  A
C2583      H2590   1.087       .  S
C2584      C2585   1.398       .  A
C2585      C2586   1.391       .  A
C2585     Br2592   1.919       .  S
C2586      H2591   1.090       .  S
C2587      C2588   1.408       .  A
C2588     Br2589   1.921       .  S
