geometry optimzed in LAMMPS
_audit_creation_date              2020-12-01 
_audit_creation_method            'lammps2cif' 
_symmetry_space_group_name_H-M    'P1' 
_symmetry_Int_Tables_number       1 
_symmetry_cell_setting            triclinic 
loop_ 
_symmetry_equiv_pos_as_xyz 
  x,y,z 
_cell_length_a                    46.58366062 
_cell_length_b                    46.454855882965695 
_cell_length_c                    29.634238572171792 
_cell_angle_alpha                 85.58430542600254 
_cell_angle_beta                  95.88935302327755 
_cell_angle_gamma                 122.39109057782733 
loop_ 
_atom_site_label 
_atom_site_type_symbol 
_atom_site_fract_x 
_atom_site_fract_y 
_atom_site_fract_z 
_atom_site_charge 
N1          N  0.51573391  0.86549606  0.45013777    -0.03200
C2          C  0.50932408  0.83323552  0.45095044    -0.00600
C3          C  0.48572997  0.81116119  0.98816858    -0.23500
C4          C  0.47811100  0.83147689  0.00853070    -0.23700
C5          C  0.49450128  0.86254989  0.98578154    -0.00700
H6          H  0.48013928  0.78625966  0.00054712     0.13000
H7          H  0.46467393  0.82531625  0.03896608     0.13100
N8          N  0.28488381  0.89100542  0.94315819    -0.03200
C9          C  0.25501384  0.86920336  0.45953892    -0.00600
C10         C  0.23678070  0.86273140  0.41782730    -0.23500
C11         C  0.25991539  0.88074225  0.38627274    -0.23700
C12         C  0.29157362  0.89700439  0.40972525    -0.00700
H13         H  0.20945625  0.84634964  0.41119241     0.13000
H14         H  0.25444668  0.88118005  0.34992213     0.13100
N15         N  0.56748806  0.09877236  0.25451770    -0.05900
N16         N  0.58147796  0.11722875  0.29130329    -0.58000
N17         N  0.57616406  0.07515426  0.15571200    -0.05600
N18         N  0.60044395  0.07937798  0.13163558    -0.60100
N19         N  0.57362095  0.10204779  0.15119356    -0.05200
N20         N  0.59650214  0.12523822  0.12385015    -0.58000
N21         N  0.57018436  0.07186640  0.25838882    -0.04800
N22         N  0.58568937  0.07129172  0.29781038    -0.60500
C23         C  0.59225783  0.09942041  0.31829998     0.96300
C24         C  0.61313641  0.11065247  0.11161966     0.96100
N25         N  0.48996989  0.97591542  0.14786354    -0.06100
N26         N  0.47985336  0.95632120  0.11265145    -0.58600
N27         N  0.52230489  0.99196327  0.25568729    -0.04200
N28         N  0.53522243  0.98041175  0.28879458    -0.59800
N29         N  0.48904228  0.97185968  0.25153573    -0.06100
N30         N  0.47871278  0.94644829  0.28165841    -0.58800
N31         N  0.52334660  0.99616337  0.15127873    -0.03800
N32         N  0.53660497  0.99063233  0.11820601    -0.59900
Mn33       Mn  0.54882786  0.03371641  0.20542331     1.18400
C34         C  0.50912715  0.96557360  0.09443384     0.98400
C35         C  0.50760559  0.95179246  0.30495200     0.99000
N36         N  0.50835562  0.10765423  0.13439777    -0.06100
N37         N  0.51941440  0.12623495  0.09699090    -0.62400
N38         N  0.47326086  0.09034852  0.23460785    -0.04900
N39         N  0.45980472  0.10083013  0.26162438    -0.63100
N40         N  0.50666116  0.11046686  0.23766855    -0.05600
N41         N  0.51648625  0.13475627  0.26668056    -0.62700
N42         N  0.47483489  0.08753263  0.13061321    -0.04500
N43         N  0.46264452  0.09240848  0.09044178    -0.63400
Mn44       Mn  0.53965622  0.10600123  0.19427917     1.10700
C45         C  0.49085640  0.11625710  0.06952937     0.99600
C46         C  0.48720068  0.12847248  0.28187293     0.99700
N47         N  0.42958150  0.98427303  0.24241439    -0.05600
N48         N  0.41636447  0.96479310  0.27830219    -0.61000
N49         N  0.42104241  0.00735574  0.13445239    -0.04900
N50         N  0.39737721  0.00150001  0.10109341    -0.57700
N51         N  0.42607974  0.98200683  0.13847071    -0.06300
N52         N  0.40632860  0.95870534  0.10805220    -0.60600
N53         N  0.42452049  0.00965563  0.23954209    -0.05200
N54         N  0.40704358  0.00740761  0.27362499    -0.57800
Mn55       Mn  0.45813711  0.97777946  0.19496578     1.20200
Mn56       Mn  0.44723174  0.04903662  0.18458624     1.10100
Cl57       Cl  0.49846924  0.04171248  0.19471698    -0.85700
C58         C  0.40236228  0.97926586  0.29769193     0.96600
C59         C  0.38840829  0.97095902  0.08475890     0.96400
N60         N  0.50651287  0.23003637  0.40019369    -0.03200
C61         C  0.51145498  0.26176656  0.39675697    -0.00600
C62         C  0.52266589  0.27544771  0.94309187    -0.23500
C63         C  0.52304879  0.25110855  0.97182119    -0.23700
C64         C  0.52015121  0.22771676  0.44205596    -0.00700
H65         H  0.52639027  0.29900155  0.95395333     0.13000
H66         H  0.52819312  0.25261899  0.00829933     0.13100
N67         N  0.72209882  0.15919937  0.99262956    -0.03200
C68         C  0.75587656  0.17052691  0.99945874    -0.00600
C69         C  0.76384222  0.16083748  0.44545253    -0.23500
C70         C  0.73564712  0.14656591  0.41533802    -0.23700
C71         C  0.70972951  0.14388909  0.43738070    -0.00700
H72         H  0.78936141  0.16908000  0.43746172     0.13000
H73         H  0.73468528  0.14078136  0.38032838     0.13100
N74         N  0.05385668  0.60401758  0.41904776    -0.05900
N75         N  0.05725183  0.62656968  0.44724857    -0.58000
N76         N  0.08061063  0.60111001  0.31902853    -0.05600
N77         N  0.09982187  0.61729574  0.28485405    -0.60100
N78         N  0.05361898  0.60351341  0.31512792    -0.05200
N79         N  0.05391908  0.62134634  0.27817677    -0.58000
N80         N  0.08124675  0.60213483  0.42318156    -0.04800
N81         N  0.10358732  0.62342986  0.45441240    -0.60500
C82         C  0.08828260  0.63840802  0.46974332     0.96300
C83         C  0.08264430  0.62950620  0.25927718     0.96100
N84         N  0.07529782  0.50811174  0.32656503    -0.06100
N85         N  0.08553827  0.49575319  0.29734624    -0.58600
N86         N  0.09317508  0.54022238  0.43033793    -0.04200
N87         N  0.11712554  0.55054243  0.46377948    -0.59800
N88         N  0.07382780  0.50671278  0.43084276    -0.06100
N89         N  0.08450199  0.49370945  0.46474571    -0.58800
N90         N  0.09477915  0.54162309  0.32633283    -0.03800
N91         N  0.11841640  0.55246689  0.29688956    -0.59900
Mn92       Mn  0.08831951  0.57188044  0.37500713     1.18400
C93         C  0.11259639  0.52361497  0.27882112     0.98400
C94         C  0.11157178  0.52138937  0.48516598     0.99000
N95         N  0.97567386  0.55133601  0.30669818    -0.06100
N96         N  0.97048413  0.56445075  0.26786276    -0.62400
N97         N  0.95265358  0.51668499  0.41059768    -0.04900
N98         N  0.92719123  0.50631795  0.43668788    -0.63100
N99         N  0.97253998  0.55016919  0.41077644    -0.05600
N100        N  0.96083145  0.56293775  0.43690481    -0.62700
N101        N  0.95637915  0.51788569  0.30659809    -0.04500
N102        N  0.93788838  0.50760819  0.26771210    -0.63400
Mn103      Mn  0.01373856  0.57798287  0.36337067     1.10700
C104        C  0.94716889  0.53681150  0.24353536     0.99600
C105        C  0.93261822  0.53539838  0.45348132     0.99700
N106        N  0.99283773  0.45266442  0.42354425    -0.05600
N107        N  0.98890867  0.42983876  0.45596247    -0.61000
N108        N  0.96766781  0.45728700  0.31525139    -0.04900
N109        N  0.94738326  0.43963924  0.28012453    -0.57700
N110        N  0.99519098  0.45573257  0.31922474    -0.06300
N111        N  0.99430830  0.43730325  0.28675674    -0.60600
N112        N  0.96589698  0.45529918  0.41912736    -0.05200
N113        N  0.94346504  0.43442263  0.44831285    -0.57800
Mn114      Mn  0.03437155  0.47999241  0.37535433     1.20200
Mn115      Mn  0.95967110  0.48617864  0.36320466     1.10100
Cl116      Cl  0.02404526  0.52897175  0.36983566    -0.85700
C117        C  0.95806825  0.41860979  0.47158802     0.96600
C118        C  0.96465934  0.42789732  0.26209938     0.96400
N119        N  0.21386908  0.53154923  0.11629517    -0.03200
C120        C  0.24118194  0.52930610  0.10899387    -0.00600
C121        C  0.25572176  0.52556520  0.15036120    -0.23500
C122        C  0.23737328  0.52613980  0.18370228    -0.23700
C123        C  0.21161602  0.52982203  0.16225944    -0.00700
H124        H  0.27716343  0.52230901  0.15572270     0.13000
H125        H  0.24183921  0.52326655  0.21986198     0.13100
N126        N  0.89164567  0.31010582  0.10288407    -0.03200
C127        C  0.87851054  0.27700145  0.09195410    -0.00600
C128        C  0.89101401  0.26213121  0.12396406    -0.23500
C129        C  0.90958825  0.28517560  0.15732483    -0.23700
C130        C  0.90855795  0.31367415  0.14435626    -0.00700
H131        H  0.88356688  0.23565779  0.12592024     0.13000
H132        H  0.92107602  0.28096309  0.18868273     0.13100
N133        N  0.83774245  0.52835990  0.06872279    -0.03200
C134        C  0.80581441  0.52316909  0.06410144    -0.00600
C135        C  0.79149409  0.51289939  0.10561564    -0.23500
C136        C  0.81531064  0.51282500  0.13670688    -0.23700
C137        C  0.84347284  0.52290939  0.11339275    -0.00700
H138        H  0.76795503  0.51009376  0.11366671     0.13000
H139        H  0.81346823  0.50885327  0.17302567     0.13100
N140        N  0.14576726  0.74824392  0.08897830    -0.03200
C141        C  0.16368960  0.78294431  0.08490184    -0.00600
C142        C  0.16952974  0.79705670  0.12691431    -0.23500
C143        C  0.15499725  0.77055078  0.15778655    -0.23700
C144        C  0.14121324  0.74115094  0.13379783    -0.00700
H145        H  0.18493185  0.82382998  0.13481455     0.13000
H146        H  0.15615364  0.77248516  0.19416887     0.13100
N147        N  0.46827942  0.47288107  0.11827572    -0.05900
N148        N  0.44915932  0.45336981  0.08371833    -0.58000
N149        N  0.50358470  0.47740278  0.22445062    -0.05600
N150        N  0.50799877  0.45965800  0.25849021    -0.60100
N151        N  0.47292431  0.47237075  0.22353748    -0.05200
N152        N  0.45600570  0.45119279  0.25678723    -0.58000
N153        N  0.49914731  0.47826539  0.11948794    -0.04800
N154        N  0.50148842  0.46259488  0.08604858    -0.60500
C155        C  0.47030090  0.44745914  0.06344667     0.96300
C156        C  0.47821235  0.44364500  0.27875163     0.96100
N157        N  0.59088801  0.57582811  0.22164793    -0.06100
N158        N  0.61147577  0.59070699  0.25775219    -0.58600
N159        N  0.57515957  0.54206084  0.11963694    -0.04200
N160        N  0.59042093  0.53355654  0.09283989    -0.59800
N161        N  0.58846867  0.57524483  0.11727425    -0.06100
N162        N  0.61332837  0.58977568  0.08924534    -0.58800
N163        N  0.57762594  0.54272598  0.22451537    -0.03800
N164        N  0.58913578  0.53445198  0.26271555    -0.59900
Mn165      Mn  0.53916221  0.50938823  0.17202800     1.18400
C166        C  0.61038080  0.56471710  0.28304053     0.98400
C167        C  0.61394075  0.56342852  0.07331822     0.99000
N168        N  0.44172132  0.51926947  0.22138001    -0.06100
N169        N  0.41903834  0.50514605  0.25266826    -0.62400
N170        N  0.45093679  0.55261258  0.11502540    -0.04900
N171        N  0.43601338  0.56137060  0.08146670    -0.63100
N172        N  0.43751446  0.51947451  0.11624741    -0.05600
N173        N  0.41313629  0.50500285  0.08348041    -0.62700
N174        N  0.45541090  0.55250876  0.21948038    -0.04500
N175        N  0.44229096  0.56141711  0.24912026    -0.63400
Mn176      Mn  0.45411699  0.49496793  0.16992459     1.10700
C177        C  0.41990820  0.53183271  0.27044032     0.99600
C178        C  0.41237730  0.53141037  0.06209355     0.99700
N179        N  0.55602425  0.62253952  0.11261215    -0.05600
N180        N  0.57294896  0.64540788  0.08066348    -0.61000
N181        N  0.53092462  0.61618309  0.21783421    -0.04900
N182        N  0.52896167  0.63056697  0.25306214    -0.57700
N183        N  0.56168584  0.62177358  0.21745752    -0.06300
N184        N  0.58110759  0.63990679  0.25265410    -0.60600
N185        N  0.52546224  0.61761788  0.11319554    -0.05200
N186        N  0.52118931  0.63694827  0.08154323    -0.57800
Mn187      Mn  0.57514657  0.59972324  0.16644869     1.20200
Mn188      Mn  0.49047002  0.58534178  0.16633290     1.10100
Cl189      Cl  0.51466331  0.54729739  0.16816908    -0.85700
C190        C  0.55085506  0.65408071  0.06101441     0.96600
C191        C  0.56036583  0.64515871  0.27486123     0.96400
N192        N  0.43135037  0.33182165  0.40920875    -0.03200
C193        C  0.42350669  0.29954024  0.40268134    -0.00600
C194        C  0.40770636  0.27919974  0.44020049    -0.23500
C195        C  0.40228855  0.29957301  0.96304203    -0.23700
C196        C  0.42252038  0.33194665  0.45135854    -0.00700
H197        H  0.39690336  0.25363202  0.93908586     0.13000
H198        H  0.39137956  0.29095124  0.99555381     0.13100
N199        N  0.31434323  0.52520200  0.42230788    -0.03200
C200        C  0.28324230  0.51912402  0.43065519    -0.00600
C201        C  0.26401659  0.51383172  0.38981796    -0.23500
C202        C  0.28345987  0.51558898  0.35612141    -0.23700
C203        C  0.31471173  0.52299970  0.37668667    -0.00700
H204        H  0.23892005  0.51002473  0.38454523     0.13000
H205        H  0.27562629  0.51217666  0.32030216     0.13100
N206        N  0.72099309  0.59519864  0.46511041    -0.03200
C207        C  0.75387840  0.60301891  0.46840425    -0.00600
C208        C  0.76989124  0.62162820  0.43018739    -0.23500
C209        C  0.74642309  0.62494798  0.40251093    -0.23700
C210        C  0.71650924  0.60793515  0.42408271    -0.00700
H211        H  0.79460552  0.62830389  0.42070140     0.13000
H212        H  0.74944200  0.63441989  0.36768815     0.13100
N213        N  0.59795866  0.76277282  0.42378630    -0.03200
C214        C  0.60228733  0.79393605  0.41625928    -0.00600
C215        C  0.62118457  0.80971739  0.37905332    -0.23500
C216        C  0.62752712  0.78703201  0.36236338    -0.23700
C217        C  0.61237020  0.75802386  0.38993521    -0.00700
H218        H  0.62552911  0.83303635  0.36199915     0.13000
H219        H  0.63772718  0.78960188  0.33006577     0.13100
C220        C  0.35873945  0.50848457  0.36535228    -0.05500
C221        C  0.34375568  0.52759817  0.35145158     0.00400
C222        C  0.35506590  0.54872474  0.31150054    -0.08200
C223        C  0.37894677  0.54830536  0.28611986    -0.05600
C224        C  0.39348112  0.52888393  0.29943976     0.00400
C225        C  0.38366846  0.50909130  0.34046622    -0.08100
C226        C  0.40002541  0.48932357  0.35850309     0.62300
H227        H  0.35013775  0.49223985  0.39541985     0.13000
H228        H  0.38647142  0.56359624  0.25503039     0.13000
C229        C  0.34256699  0.57199980  0.29362066     0.62500
F230        F  0.38932514  0.47427251  0.40066485    -0.22600
F231        F  0.43508274  0.51111545  0.36284125    -0.20000
F232        F  0.39159114  0.46386895  0.32896501    -0.19700
F233        F  0.36886855  0.60181234  0.27527234    -0.19700
F234        F  0.33086990  0.58137236  0.32715305    -0.20000
F235        F  0.31672149  0.55564418  0.25996824    -0.22700
C236        C  0.33126527  0.50055719  0.98449052    -0.05500
C237        C  0.34101543  0.52940373  0.95615072     0.00400
C238        C  0.37431396  0.55857888  0.96236915    -0.08200
C239        C  0.39715946  0.55703929  0.99562511    -0.05600
C240        C  0.38724109  0.52846780  0.02484950     0.00400
C241        C  0.35338211  0.49974972  0.01976674    -0.08100
C242        C  0.33974769  0.46904906  0.05225908     0.62300
H243        H  0.30552882  0.47879642  0.97910823     0.13000
H244        H  0.42284702  0.57917275  0.99998264     0.13000
C245        C  0.38300743  0.59066566  0.43506154     0.62500
F246        F  0.30506825  0.44632197  0.04370879    -0.22600
F247        F  0.34506181  0.47959987  0.09639821    -0.20000
F248        F  0.35596034  0.45182437  0.04792814    -0.19700
F249        F  0.35541895  0.59153174  0.41485008    -0.19700
F250        F  0.40384103  0.59466978  0.40197783    -0.20000
F251        F  0.40093098  0.61796744  0.46379304    -0.22700
C252        C  0.56531363  0.70135929  0.36618523    -0.05500
C253        C  0.60068504  0.72414701  0.37243558     0.00400
C254        C  0.62260788  0.71754555  0.35193812    -0.08200
C255        C  0.60821804  0.69039850  0.32204781    -0.05600
C256        C  0.57272468  0.66934376  0.31258740     0.00400
C257        C  0.55074019  0.67349817  0.33753191    -0.08100
C258        C  0.51209464  0.65008932  0.33315108     0.62300
H259        H  0.54872336  0.70740813  0.38010340     0.13000
H260        H  0.62523141  0.68666785  0.30448812     0.13000
C261        C  0.66117634  0.73945561  0.35825084     0.62500
F262        F  0.49701493  0.65566588  0.36659567    -0.22600
F263        F  0.50289143  0.61637474  0.33742057    -0.20000
F264        F  0.49925556  0.65580961  0.29162027    -0.19700
F265        F  0.67258000  0.76216503  0.39298733    -0.19700
F266        F  0.67383343  0.75753483  0.31833281    -0.20000
F267        F  0.67412718  0.71881645  0.36848117    -0.22700
C268        C  0.59617048  0.70732585  0.02542859    -0.05500
C269        C  0.56108970  0.68381275  0.02838865     0.00400
C270        C  0.53770916  0.68937915  0.00007900    -0.08200
C271        C  0.55065736  0.71804201  0.96986326    -0.05600
C272        C  0.58570889  0.74002021  0.96528362     0.00400
C273        C  0.60887728  0.73535536  0.99487307    -0.08100
C274        C  0.64733673  0.75883859  0.99547555     0.62300
H275        H  0.61427703  0.70381097  0.04723430     0.13000
H276        H  0.53369614  0.72193165  0.44339930     0.13000
C277        C  0.49942391  0.66434981  0.99919762     0.62500
F278        F  0.66049113  0.76905795  0.03939628    -0.22600
F279        F  0.65773677  0.78792107  0.96860646    -0.20000
F280        F  0.66352651  0.74798792  0.48694938    -0.19700
F281        F  0.48764685  0.66417493  0.04022648    -0.19700
F282        F  0.49183617  0.63199710  0.99090576    -0.20000
F283        F  0.48207021  0.67278201  0.96548849    -0.22700
C284        C  0.64046706  0.59818503  0.35175488    -0.05500
C285        C  0.63211840  0.57023150  0.32567617     0.00400
C286        C  0.64777905  0.55138266  0.33810761    -0.08200
C287        C  0.67345661  0.56321139  0.37364640    -0.05600
C288        C  0.68371478  0.59281802  0.39673689     0.00400
C289        C  0.66620980  0.60983028  0.38734835    -0.08100
C290        C  0.67568189  0.64070985  0.41386513     0.62300
H291        H  0.62776524  0.61190005  0.34263307     0.13000
H292        H  0.68732430  0.55058593  0.38211345     0.13000
C293        C  0.63911858  0.52019499  0.31280601     0.62500
F294        F  0.65385662  0.65210769  0.40180522    -0.22600
F295        F  0.70851328  0.66692184  0.40589212    -0.20000
F296        F  0.67395942  0.63239741  0.45971900    -0.19700
F297        F  0.64518596  0.52865393  0.26751956    -0.19700
F298        F  0.60526462  0.49522691  0.31665460    -0.20000
F299        F  0.65831491  0.50665615  0.33011559    -0.22700
C300        C  0.67592433  0.59428234  0.06002065    -0.05500
C301        C  0.64243563  0.56782025  0.04771973     0.00400
C302        C  0.63714481  0.54691641  0.01123043    -0.08200
C303        C  0.66527069  0.55445728  0.98716791    -0.05600
C304        C  0.69846047  0.58221137  0.99772354     0.00400
C305        C  0.70252452  0.60289485  0.53737393    -0.08100
C306        C  0.73778855  0.63296244  0.55067615     0.62300
H307        H  0.67988062  0.60953020  0.08856991     0.13000
H308        H  0.66136402  0.53956895  0.95827653     0.13000
C309        C  0.60172830  0.51792289  0.99590493     0.62500
F310        F  0.73765191  0.65017691  0.58668958    -0.22600
F311        F  0.75027297  0.65583811  0.51443148    -0.20000
F312        F  0.75935262  0.62147454  0.56381918    -0.19700
F313        F  0.58039680  0.53011544  0.98586633    -0.19700
F314        F  0.58888665  0.49308079  0.02989762    -0.20000
F315        F  0.60190676  0.50284370  0.95748532    -0.22700
C316        C  0.47615150  0.38877246  0.38297488    -0.05500
C317        C  0.44312564  0.35993606  0.37658298     0.00400
C318        C  0.42158036  0.35926536  0.33887418    -0.08200
C319        C  0.43403623  0.38740438  0.30842615    -0.05600
C320        C  0.46774238  0.41539417  0.31317896     0.00400
C321        C  0.48955330  0.41578191  0.35059895    -0.08100
C322        C  0.52697954  0.44362202  0.35563143     0.62300
H323        H  0.49206680  0.38893276  0.41222157     0.13000
H324        H  0.41766336  0.38721636  0.27959179     0.13000
C325        C  0.38544498  0.32903345  0.33100107     0.62500
F326        F  0.54277257  0.44036196  0.39619493    -0.22600
F327        F  0.53081511  0.47532372  0.35412511    -0.20000
F328        F  0.54317611  0.44147107  0.32068955    -0.19700
F329        F  0.36813706  0.32168205  0.36963942    -0.19700
F330        F  0.38616311  0.30103398  0.32031746    -0.20000
F331        F  0.36751709  0.33526902  0.29555119    -0.22700
C332        C  0.42563639  0.38729511  0.96363082    -0.05500
C333        C  0.43437895  0.36296025  0.97559352     0.00400
C334        C  0.45772582  0.36852412  0.01370724    -0.08200
C335        C  0.46874720  0.39648264  0.04113321    -0.05600
C336        C  0.45839782  0.41971210  0.03093838     0.00400
C337        C  0.43800152  0.41621148  0.99024656    -0.08100
C338        C  0.43110800  0.44382671  0.97374305     0.62300
H339        H  0.39580818  0.36978182  0.45228616     0.13000
H340        H  0.48523931  0.40006071  0.07151767     0.13000
C341        C  0.47165771  0.34554667  0.02522838     0.62500
F342        F  0.38178012  0.40997571  0.46537381    -0.22600
F343        F  0.46170694  0.47480946  0.97135241    -0.20000
F344        F  0.41131817  0.44611890  0.00319967    -0.19700
F345        F  0.48316129  0.34075788  0.98694577    -0.19700
F346        F  0.44655812  0.31435355  0.04200556    -0.20000
F347        F  0.49876541  0.35952523  0.05781704    -0.22700
C348        C  0.81605179  0.57641423  0.02665233    -0.05500
C349        C  0.79240641  0.54244538  0.53121161     0.00400
C350        C  0.75720987  0.52739795  0.51735365    -0.08200
C351        C  0.74543185  0.54843313  0.49941191    -0.05600
C352        C  0.76710870  0.58397521  0.49614252     0.00400
C353        C  0.80403572  0.59781033  0.01149455    -0.08100
C354        C  0.82962265  0.63599557  0.01451182     0.62300
H355        H  0.84249155  0.58792671  0.03941926     0.13000
H356        H  0.71891731  0.53668246  0.48692125     0.13000
C357        C  0.73072379  0.48944585  0.52043700     0.62500
F358        F  0.84691743  0.64322970  0.05703747    -0.22600
F359        F  0.81461525  0.65496403  0.00831528    -0.20000
F360        F  0.85294684  0.64622937  0.98221995    -0.19700
F361        F  0.71623789  0.47789114  0.47735154    -0.19700
F362        F  0.70544743  0.48402106  0.54704713    -0.20000
F363        F  0.74384572  0.47023379  0.53871037    -0.22700
C364        C  0.29564806  0.54872613  0.00746776    -0.05500
C365        C  0.27232929  0.52087351  0.47632800     0.00400
C366        C  0.24292524  0.49331844  0.49618337    -0.08200
C367        C  0.23433977  0.49749239  0.53877283    -0.05600
C368        C  0.25302627  0.52834257  0.06375240     0.00400
C369        C  0.28650622  0.55240627  0.04975354    -0.08100
C370        C  0.31394608  0.58318021  0.07643629     0.62300
H371        H  0.32036433  0.56817159  0.99602763     0.13000
H372        H  0.21304476  0.47617561  0.55492656     0.13000
C373        C  0.22071445  0.45926139  0.47316475     0.62500
F374        F  0.34199234  0.58029494  0.08636668    -0.22600
F375        F  0.30401251  0.58706736  0.11660314    -0.20000
F376        F  0.32365068  0.61245152  0.05004617    -0.19700
F377        F  0.24061593  0.44775778  0.46079623    -0.19700
F378        F  0.20302717  0.46274657  0.43502737    -0.20000
F379        F  0.19703524  0.43458918  0.50140773    -0.22700
C380        C  0.91885880  0.56297114  0.19871163    -0.05500
C381        C  0.92743912  0.53819530  0.20198828     0.00400
C382        C  0.91464437  0.51378140  0.16753450    -0.08200
C383        C  0.88866765  0.51100901  0.13589118    -0.05600
C384        C  0.87690258  0.53304540  0.13676533     0.00400
C385        C  0.89424638  0.56130713  0.16574522    -0.08100
C386        C  0.88739912  0.58988367  0.16411514     0.62300
H387        H  0.93021781  0.58293573  0.22342911     0.13000
H388        H  0.87611049  0.49047146  0.11200951     0.13000
C389        C  0.92869535  0.49129315  0.16364512     0.62500
F390        F  0.91772705  0.62079165  0.15927639    -0.22600
F391        F  0.89051511  0.60178683  0.69267523    -0.20000
F392        F  0.86480604  0.58763462  0.12842360    -0.19700
F393        F  0.91748963  0.46627435  0.19748847    -0.19700
F394        F  0.96395244  0.51098833  0.16726794    -0.20000
F395        F  0.91845764  0.47549373  0.12219973    -0.22700
C396        C  0.87413231  0.50772357  0.48064017    -0.05500
C397        C  0.90749580  0.53667450  0.48045366     0.00400
C398        C  0.91554142  0.56515359  0.50619378    -0.08200
C399        C  0.89042171  0.56276292  0.53217379    -0.05600
C400        C  0.85751625  0.53350348  0.53311172     0.00400
C401        C  0.84904650  0.50576427  0.50607563    -0.08100
C402        C  0.81350500  0.47407866  0.50417700     0.62300
H403        H  0.86765417  0.48631208  0.46046625     0.13000
H404        H  0.90008414  0.58091322  0.05970553     0.13000
C405        C  0.95057041  0.59776516  0.50765011     0.62500
F406        F  0.79078941  0.48264292  0.48452955    -0.22600
F407        F  0.80462428  0.46057466  0.54740960    -0.20000
F408        F  0.81090956  0.44903629  0.47843988    -0.19700
F409        F  0.95659604  0.61338568  0.46505755    -0.19700
F410        F  0.97529021  0.59044348  0.52163186    -0.20000
F411        F  0.95955359  0.61234823  0.05575072    -0.22700
C412        C  0.91968187  0.36933422  0.24046717    -0.05500
C413        C  0.94905605  0.40025363  0.22916241     0.00400
C414        C  0.96407504  0.40347487  0.18844408    -0.08200
C415        C  0.95056198  0.37456806  0.16180556    -0.05600
C416        C  0.92187393  0.34323870  0.17389571     0.00400
C417        C  0.90559090  0.34061115  0.21329879    -0.08100
C418        C  0.87339764  0.30770001  0.22654256     0.62300
H419        H  0.90844430  0.36758234  0.27159521     0.13000
H420        H  0.96249848  0.37624431  0.13146166     0.13000
C421        C  0.99328214  0.43766045  0.17239776     0.62500
F422        F  0.88070824  0.28293585  0.23930009    -0.22600
F423        F  0.84909335  0.29643544  0.19025444    -0.20000
F424        F  0.85951064  0.31206442  0.26259754    -0.19700
F425        F  0.02159788  0.44886087  0.20267062    -0.19700
F426        F  0.98360019  0.46120304  0.16931170    -0.20000
F427        F  0.00229556  0.43584943  0.13008097    -0.22700
C428        C  0.90763092  0.38109495  0.51751288    -0.05500
C429        C  0.93992334  0.38949109  0.50534277     0.00400
C430        C  0.95345936  0.36998488  0.52584744    -0.08200
C431        C  0.93325518  0.34182362  0.55445128    -0.05600
C432        C  0.90116714  0.33352001  0.56602485     0.00400
C433        C  0.88859388  0.35410407  0.54860954    -0.08100
C434        C  0.85543085  0.34755087  0.56352720     0.62300
H435        H  0.89754133  0.39633596  0.50324261     0.13000
H436        H  0.94280339  0.32636298  0.56983424     0.13000
C437        C  0.98935108  0.37900471  0.51948967     0.62500
F438        F  0.84603365  0.36870423  0.54061419    -0.22600
F439        F  0.87438671  0.35982563  0.12769939    -0.20000
F440        F  0.82964410  0.31410717  0.55550132    -0.19700
F441        F  0.01254497  0.41222198  0.53234912    -0.19700
F442        F  0.99229368  0.37530753  0.47465330    -0.20000
F443        F  0.99777343  0.35824833  0.54578766    -0.22700
C444        C  0.15263032  0.55107699  0.21620252    -0.05500
C445        C  0.13568308  0.52312215  0.24659712     0.00400
C446        C  0.14276143  0.49682459  0.24685196    -0.08200
C447        C  0.16660794  0.49990256  0.21760421    -0.05600
C448        C  0.18397650  0.52806504  0.18775789     0.00400
C449        C  0.17679799  0.55432492  0.18726614    -0.08100
C450        C  0.19418865  0.58621472  0.15726423     0.62300
H451        H  0.14701376  0.57093482  0.21540349     0.13000
H452        H  0.17227469  0.48011228  0.21811759     0.13000
C453        C  0.12618766  0.46591680  0.27875268     0.62500
F454        F  0.19640101  0.61347316  0.17698573    -0.22600
F455        F  0.17538823  0.58046151  0.11606273    -0.20000
F456        F  0.22698232  0.59559631  0.15031698    -0.19700
F457        F  0.09150986  0.44655584  0.26729082    -0.19700
F458        F  0.13204513  0.47630348  0.32306036    -0.20000
F459        F  0.13902219  0.44525045  0.27647904    -0.22700
C460        C  0.15889398  0.55240026  0.54255883    -0.05500
C461        C  0.13617657  0.52122912  0.52123401     0.00400
C462        C  0.13961445  0.49287319  0.53295330    -0.08200
C463        C  0.16554418  0.49717941  0.56587804    -0.05600
C464        C  0.18909921  0.52882918  0.58505329     0.00400
C465        C  0.18576770  0.55700353  0.57337174    -0.08100
C466        C  0.20984476  0.59260407  0.59112674     0.62300
H467        H  0.15634634  0.57410610  0.53415470     0.13000
H468        H  0.14889599  0.48458862  0.11362655     0.13000
C469        C  0.11719525  0.45858471  0.51053155     0.62500
F470        F  0.22327169  0.61529438  0.55485547    -0.22600
F471        F  0.23662458  0.59554538  0.61928745    -0.20000
F472        F  0.19198207  0.60173498  0.61489352    -0.19700
F473        F  0.11971192  0.46270782  0.46408415    -0.19700
F474        F  0.08371676  0.44441047  0.52016161    -0.20000
F475        F  0.08880958  0.45514974  0.10350179    -0.22700
C476        C  0.09173265  0.68550438  0.15416005    -0.05500
C477        C  0.12719640  0.70741720  0.15621199     0.00400
C478        C  0.14793802  0.70008624  0.18687463    -0.08200
C479        C  0.13220243  0.67341983  0.21880719    -0.05600
C480        C  0.09662696  0.65361520  0.22027039     0.00400
C481        C  0.07585541  0.65821579  0.18560957    -0.08100
C482        C  0.03723859  0.63532369  0.18215131     0.62300
H483        H  0.07644698  0.69142089  0.12989816     0.13000
H484        H  0.14813549  0.66905604  0.24405503     0.13000
C485        C  0.18663987  0.72016886  0.18842332     0.62500
F486        F  0.02326204  0.63950123  0.14052300    -0.22600
F487        F  0.02399324  0.64309938  0.21557574    -0.20000
F488        F  0.02750030  0.60145453  0.18686815    -0.19700
F489        F  0.19985242  0.73726027  0.22879377    -0.19700
F490        F  0.19688901  0.74102601  0.65874555    -0.20000
F491        F  0.19749458  0.69783226  0.18633465    -0.22700
C492        C  0.09240454  0.68998373  0.49768755    -0.05500
C493        C  0.10515911  0.66835811  0.50086805     0.00400
C494        C  0.13242659  0.67553250  0.53405331    -0.08200
C495        C  0.14557210  0.70386006  0.56233818    -0.05600
C496        C  0.13268449  0.72529073  0.55896581     0.00400
C497        C  0.10543958  0.71804804  0.52615283    -0.08100
C498        C  0.09067938  0.73752188  0.01961930     0.62300
H499        H  0.07195380  0.68488841  0.47222346     0.13000
H500        H  0.16584020  0.70927529  0.58811546     0.13000
C501        C  0.14709018  0.65302109  0.54095328     0.62500
F502        F  0.11369251  0.77006352  0.00409689    -0.22600
F503        F  0.08165723  0.73905025  0.06199262    -0.20000
F504        F  0.06164034  0.72408934  0.99018997    -0.19700
F505        F  0.16379851  0.65584696  0.50334436    -0.19700
F506        F  0.12121148  0.61941730  0.54758250    -0.20000
F507        F  0.17029856  0.66218838  0.57844697    -0.22700
C508        C  0.81935660  0.22709813  0.09376056    -0.05500
C509        C  0.84405058  0.25450576  0.06774853     0.00400
C510        C  0.83820299  0.24947070  0.51530019    -0.08200
C511        C  0.80781788  0.22452345  0.49212365    -0.05600
C512        C  0.78172998  0.20060523  0.02679283     0.00400
C513        C  0.78966995  0.19896942  0.07383828    -0.08100
C514        C  0.76862360  0.16722477  0.10272203     0.62300
H515        H  0.82481963  0.22656563  0.13011521     0.13000
H516        H  0.80585690  0.22594127  0.45539639     0.13000
C517        C  0.86887291  0.27254400  0.48815473     0.62500
F518        F  0.78490197  0.16889413  0.14513739    -0.22600
F519        F  0.76308530  0.13885694  0.08197234    -0.20000
F520        F  0.73788323  0.16352369  0.10896290    -0.19700
F521        F  0.89794911  0.27563499  0.51035161    -0.19700
F522        F  0.87289698  0.30415168  0.48139155    -0.20000
F523        F  0.86493432  0.25948019  0.44592170    -0.22700
C524        C  0.47505707  0.31476025  0.36418703    -0.05500
C525        C  0.44106187  0.29012983  0.37248719     0.00400
C526        C  0.42950854  0.25545962  0.36576786    -0.08200
C527        C  0.45380162  0.24630980  0.36541833    -0.05600
C528        C  0.48882725  0.27110611  0.36951582     0.00400
C529        C  0.49920791  0.30578544  0.36233070    -0.08100
C530        C  0.53578077  0.33464759  0.35692135     0.62300
H531        H  0.48439888  0.34125825  0.36481058     0.13000
H532        H  0.44628271  0.22212362  0.86096969     0.13000
C533        C  0.39424049  0.23113065  0.85200174     0.62500
F534        F  0.54712163  0.35646293  0.39282123    -0.22600
F535        F  0.53710192  0.35271829  0.31701860    -0.20000
F536        F  0.55759612  0.32324932  0.35514414    -0.19700
F537        F  0.37323684  0.24385681  0.84910514    -0.19700
F538        F  0.38445675  0.20646469  0.88636590    -0.20000
F539        F  0.38985280  0.21603056  0.81130307    -0.22700
C540        C  0.65288514  0.10410847  0.07099049    -0.05500
C541        C  0.64298738  0.12618189  0.08261713     0.00400
C542        C  0.66246024  0.16100765  0.06766003    -0.08200
C543        C  0.68911932  0.17128528  0.03892941    -0.05600
C544        C  0.69798175  0.14861663  0.02665108     0.00400
C545        C  0.68012401  0.11452525  0.04430694    -0.08100
C546        C  0.68842255  0.08765369  0.03751779     0.62300
H547        H  0.63911150  0.07776315  0.08301227     0.13000
H548        H  0.70359933  0.19387367  0.51485465     0.13000
C549        C  0.65606323  0.18753425  0.08226518     0.62500
F550        F  0.69722041  0.07801229  0.07936457    -0.22600
F551        F  0.71484028  0.09852680  0.01029549    -0.20000
F552        F  0.65991554  0.05910496  0.01848516    -0.19700
F553        F  0.65814350  0.18800061  0.12911697    -0.19700
F554        F  0.62421305  0.18007733  0.06516431    -0.20000
F555        F  0.68287903  0.21823905  0.55837841    -0.22700
C556        C  0.64887649  0.10152878  0.41808377    -0.05500
C557        C  0.67651488  0.13504542  0.41433589     0.00400
C558        C  0.67290570  0.15900148  0.38587832    -0.08200
C559        C  0.64267604  0.14736305  0.35787132    -0.05600
C560        C  0.61632061  0.11287937  0.35864443     0.00400
C561        C  0.61799806  0.09048247  0.39241766    -0.08100
C562        C  0.58815640  0.05479915  0.40211804     0.62300
H563        H  0.65159344  0.08353427  0.44019518     0.09400
H564        H  0.64080052  0.16445704  0.33249042     0.13000
C565        C  0.70167136  0.19612086  0.38296315     0.62500
F566        F  0.58457074  0.05022149  0.44837722    -0.22600
F567        F  0.59423818  0.03103982  0.38778448    -0.20000
F568        F  0.55767701  0.04909980  0.38112561    -0.19700
F569        F  0.69122921  0.21582768  0.35811513    -0.19700
F570        F  0.72833173  0.19882937  0.36228804    -0.20000
F571        F  0.71309204  0.20913704  0.42602025    -0.22700
C572        C  0.51950994  0.17550726  0.96642586    -0.05500
C573        C  0.49878731  0.18878867  0.96700333     0.00400
C574        C  0.47048315  0.17253172  0.99417294    -0.08200
C575        C  0.46701125  0.14663668  0.02500838    -0.05600
C576        C  0.49046444  0.13639591  0.02874610     0.00400
C577        C  0.51541225  0.14889843  0.99663689    -0.08100
C578        C  0.53774574  0.13449775  0.99454728     0.62300
H579        H  0.54033732  0.18761812  0.94435575     0.13000
H580        H  0.44701146  0.13590736  0.04834727     0.13000
C581        C  0.44392363  0.18206754  0.99348774     0.62500
F582        F  0.55528898  0.14548149  0.95558496    -0.22600
F583        F  0.51781007  0.09925644  0.99467825    -0.20000
F584        F  0.56127589  0.14470600  0.03143619    -0.19700
F585        F  0.44799677  0.20651157  0.96070235    -0.19700
F586        F  0.44534574  0.19410836  0.03544249    -0.20000
F587        F  0.41190965  0.15329815  0.98490780    -0.22700
C588        C  0.47059395  0.17160524  0.37209830    -0.05500
C589        C  0.49611923  0.20592232  0.36447613     0.00400
C590        C  0.51524858  0.21463788  0.32584563    -0.08200
C591        C  0.50985645  0.18844848  0.29862389    -0.05600
C592        C  0.48616883  0.15397344  0.30822406     0.00400
C593        C  0.46522006  0.14539226  0.34462813    -0.08100
C594        C  0.43856118  0.10873671  0.35583049     0.62300
H595        H  0.45587804  0.16530793  0.40117066     0.13000
H596        H  0.52493462  0.19471150  0.26982664     0.13000
C597        C  0.54211196  0.25120121  0.31373494     0.62500
F598        F  0.42247690  0.10571455  0.39430429    -0.22600
F599        F  0.45379312  0.08999419  0.36339347    -0.20000
F600        F  0.41405374  0.09551190  0.31996278    -0.19700
F601        F  0.56557652  0.26621112  0.35028823    -0.19700
F602        F  0.52653141  0.26915577  0.30131473    -0.20000
F603        F  0.55977606  0.25332299  0.27750392    -0.22700
C604        C  0.21255338  0.85929132  0.51013062    -0.05500
C605        C  0.23732137  0.85259901  0.50102629     0.00400
C606        C  0.22759318  0.81659789  0.99653894    -0.08200
C607        C  0.20333398  0.79480544  0.02721028    -0.05600
C608        C  0.18296291  0.80388256  0.04596234     0.00400
C609        C  0.18499944  0.83643687  0.53559112    -0.08100
C610        C  0.15874226  0.84562622  0.54080694     0.62300
H611        H  0.21343754  0.88157397  0.49425127     0.13000
H612        H  0.20109450  0.77096868  0.03812140     0.13000
C613        C  0.24793429  0.80483907  0.97591629     0.62500
F614        F  0.15294793  0.85929948  0.01079177    -0.22600
F615        F  0.18288476  0.87346684  0.07853842    -0.20000
F616        F  0.13011507  0.81992694  0.56091830    -0.19700
F617        F  0.28170261  0.82496217  0.99135987    -0.19700
F618        F  0.26489378  0.81273906  0.46897952    -0.20000
F619        F  0.23699152  0.77126258  0.98785382    -0.22700
C620        C  0.30501631  0.92880641  0.00775389    -0.05500
C621        C  0.31020226  0.90886479  0.98023668     0.00400
C622        C  0.34130433  0.90978323  0.98738039    -0.08200
C623        C  0.36606664  0.93107401  0.02088084    -0.05600
C624        C  0.36112176  0.95135200  0.04809164     0.00400
C625        C  0.32973913  0.94993983  0.04166167    -0.08100
C626        C  0.32181379  0.96991871  0.07082882     0.62300
H627        H  0.28143009  0.92824718  0.00149429     0.13000
H628        H  0.38977271  0.93166488  0.02601423     0.13000
C629        C  0.34989692  0.88866681  0.96186154     0.62500
F630        F  0.28879845  0.96244416  0.06145891    -0.22600
F631        F  0.34375696  0.00447214  0.06284732    -0.20000
F632        F  0.32542540  0.96202941  0.11619323    -0.19700
F633        F  0.37902174  0.90842429  0.44118083    -0.19700
F634        F  0.32352943  0.86642291  0.93252616    -0.20000
F635        F  0.35787870  0.86961131  0.99264463    -0.22700
C636        C  0.34509258  0.95154656  0.39537240    -0.05500
C637        C  0.32314172  0.91676364  0.38630466     0.00400
C638        C  0.32919435  0.90244944  0.35062704    -0.08200
C639        C  0.35473641  0.92429015  0.32219106    -0.05600
C640        C  0.37571105  0.95933839  0.32957452     0.00400
C641        C  0.37212118  0.97307176  0.36801245    -0.08100
C642        C  0.39638440  0.01005790  0.37976565     0.62300
H643        H  0.34014375  0.96202663  0.42284272     0.13000
H644        H  0.35833343  0.91353852  0.29364341     0.13000
C645        C  0.31020111  0.86460694  0.34059413     0.62500
F646        F  0.39193337  0.01673709  0.42240105    -0.22600
F647        F  0.39062219  0.03012693  0.34812679    -0.20000
F648        F  0.42972287  0.01850522  0.37945767    -0.19700
F649        F  0.29250860  0.85902046  0.29850436    -0.19700
F650        F  0.28447353  0.84763126  0.85770818    -0.20000
F651        F  0.33363158  0.85505545  0.33964669    -0.22700
C652        C  0.54820560  0.79113901  0.39923248    -0.05500
C653        C  0.57795275  0.80257699  0.42814701     0.00400
C654        C  0.58500480  0.82572564  0.96598579    -0.08200
C655        C  0.56144732  0.83514171  0.97078787    -0.05600
C656        C  0.53399112  0.82540048  0.43788048     0.00400
C657        C  0.52551356  0.80162798  0.40427436    -0.08100
C658        C  0.49237049  0.78700588  0.37483032     0.62300
H659        H  0.54295372  0.77383787  0.37263537     0.13000
H660        H  0.56563990  0.85128657  0.99834322     0.13000
C661        C  0.61774655  0.84047599  0.99629428     0.62500
F662        F  0.49063462  0.81315060  0.35189993    -0.22600
F663        F  0.46514930  0.76903124  0.40175824    -0.20000
F664        F  0.48952919  0.76505451  0.34313172    -0.19700
F665        F  0.62022581  0.86283554  0.02703763    -0.19700
F666        F  0.64542030  0.85804353  0.97006549    -0.20000
F667        F  0.61898663  0.81438423  0.02029000    -0.22700
C668        C  0.53117597  0.91371110  0.02937230    -0.05500
C669        C  0.50004606  0.89354873  0.00439152     0.00400
C670        C  0.47401306  0.90040867  0.00424143    -0.08200
C671        C  0.47959858  0.92651092  0.03140105    -0.05600
C672        C  0.50983091  0.94517804  0.05924985     0.00400
C673        C  0.53690092  0.93984774  0.05675560    -0.08100
C674        C  0.57081408  0.95974425  0.08446689     0.62300
H675        H  0.55018666  0.90706904  0.02991545     0.13000
H676        H  0.45919174  0.93112843  0.03258964     0.13000
C677        C  0.43952083  0.88032566  0.97811741     0.62500
F678        F  0.59320860  0.95024999  0.07564110    -0.22600
F679        F  0.56574898  0.95394156  0.13028892    -0.20000
F680        F  0.58609092  0.99419047  0.07391138    -0.19700
F681        F  0.43405623  0.90250024  0.95032627    -0.19700
F682        F  0.41447510  0.86438603  0.00856900    -0.20000
F683        F  0.43651805  0.85575267  0.95119022    -0.22700
C684        C  0.48583281  0.87326566  0.38264761    -0.05500
C685        C  0.51661731  0.88490586  0.40904424     0.00400
C686        C  0.54496751  0.91765171  0.39905653    -0.08200
C687        C  0.54084377  0.93823897  0.36475828    -0.05600
C688        C  0.50943141  0.92738305  0.33980344     0.00400
C689        C  0.48131995  0.89373041  0.34861788    -0.08100
C690        C  0.44635046  0.87898384  0.32334449     0.62300
H691        H  0.46460898  0.84810878  0.39088893     0.13000
H692        H  0.56260576  0.96345518  0.35789594     0.13000
C693        C  0.58007594  0.93208678  0.42296418     0.62500
F694        F  0.42371881  0.84555007  0.33672426    -0.22600
F695        F  0.44909973  0.87925337  0.27725490    -0.20000
F696        F  0.43251186  0.89779894  0.33187138    -0.19700
F697        F  0.60338652  0.94080780  0.39112253    -0.19700
F698        F  0.58195218  0.90921432  0.45369561    -0.20000
F699        F  0.58904915  0.96107351  0.44553716    -0.22700
N700        N  0.51221015  0.86263036  0.95232266    -0.03200
C701        C  0.50671139  0.83072527  0.95401655    -0.00600
C702        C  0.48994670  0.81431998  0.48678391    -0.23500
C703        C  0.48473259  0.83544587  0.50947272    -0.23700
C704        C  0.50068420  0.86632464  0.48628948    -0.00700
H705        H  0.48433277  0.78933500  0.49878298     0.13000
H706        H  0.47290543  0.82978154  0.54122662     0.13100
N707        N  0.28902942  0.89072412  0.45517551    -0.03200
C708        C  0.25065008  0.86948775  0.94615749    -0.00600
C709        C  0.23303052  0.86602437  0.90452751    -0.23500
C710        C  0.25683243  0.88569403  0.87423590    -0.23700
C711        C  0.28826487  0.90013967  0.89829887    -0.00700
H712        H  0.20575437  0.85018713  0.89695639     0.13000
H713        H  0.25189948  0.88834697  0.83815436     0.13100
N714        N  0.57637995  0.10316077  0.75651171    -0.05900
N715        N  0.59033232  0.12224972  0.79273093    -0.58000
N716        N  0.58503125  0.07750964  0.65926840    -0.05600
N717        N  0.60791770  0.08046557  0.63337658    -0.60100
N718        N  0.58240689  0.10433707  0.65350696    -0.05200
N719        N  0.60359818  0.12607931  0.62355850    -0.58000
N720        N  0.57868264  0.07601690  0.76186947    -0.04800
N721        N  0.59393243  0.07596549  0.80177444    -0.60500
C722        C  0.60065375  0.10462073  0.82093605     0.96300
C723        C  0.61947600  0.11088327  0.61106867     0.96100
N724        N  0.49834803  0.97883669  0.65344667    -0.06100
N725        N  0.48802145  0.95867756  0.61889073    -0.58600
N726        N  0.52938931  0.99544482  0.76105289    -0.04200
N727        N  0.54136369  0.98258838  0.79369486    -0.59800
N728        N  0.49600719  0.97620786  0.75645777    -0.06100
N729        N  0.48472456  0.95023325  0.78574865    -0.58800
N730        N  0.53178719  0.99837291  0.65715305    -0.03800
N731        N  0.54486982  0.99173136  0.62489400    -0.59900
Mn732      Mn  0.55721057  0.03682817  0.71015947     1.18400
C733        C  0.51713873  0.96683585  0.60120274     0.98400
C734        C  0.51306228  0.95416830  0.80895913     0.99000
N735        N  0.51925219  0.11239112  0.63373256    -0.06100
N736        N  0.53069676  0.13100232  0.59626533    -0.62400
N737        N  0.48304899  0.09632017  0.73328649    -0.04900
N738        N  0.46930070  0.10703812  0.75927898    -0.63100
N739        N  0.51643813  0.11629556  0.73702709    -0.05600
N740        N  0.52593944  0.14080006  0.76564127    -0.62700
N741        N  0.48572217  0.09262075  0.62969791    -0.04500
N742        N  0.47386552  0.09776167  0.58942034    -0.63400
Mn743      Mn  0.54934621  0.11029344  0.69513244     1.10700
C744        C  0.50221857  0.12142085  0.56857876     0.99600
C745        C  0.49636288  0.13476157  0.77970789     0.99700
N746        N  0.43660294  0.98965662  0.74354732    -0.05600
N747        N  0.41956411  0.96888160  0.77678230    -0.61000
N748        N  0.43134200  0.01288303  0.63513702    -0.04900
N749        N  0.40764484  0.00698231  0.60192480    -0.57700
N750        N  0.43557358  0.98702571  0.64045797    -0.06300
N751        N  0.41518227  0.96326129  0.61096163    -0.60600
N752        N  0.43227812  0.01553874  0.73899396    -0.05200
N753        N  0.41166205  0.01245048  0.76925293    -0.57800
Mn754      Mn  0.46625998  0.98236763  0.69851021     1.20200
Mn755      Mn  0.45718351  0.05472119  0.68411378     1.10100
Cl756      Cl  0.50750484  0.04609262  0.69706151    -0.85700
C757        C  0.40426629  0.98330508  0.79296746     0.96600
C758        C  0.39783083  0.97587821  0.58698432     0.96400
N759        N  0.50396305  0.22912488  0.90229678    -0.03200
C760        C  0.50993477  0.26126192  0.90052241    -0.00600
C761        C  0.53008337  0.27967919  0.43543389    -0.23500
C762        C  0.53578580  0.25826898  0.46371789    -0.23700
C763        C  0.51080324  0.22281904  0.94615551    -0.00700
H764        H  0.53495062  0.30397368  0.44508066     0.13000
H765        H  0.54641412  0.26307735  0.49853277     0.13100
N766        N  0.72045400  0.15488621  0.48043975    -0.03200
C767        C  0.75465751  0.16740018  0.48490586    -0.00600
C768        C  0.76608579  0.16313286  0.96173708    -0.23500
C769        C  0.73875337  0.14901753  0.93026271    -0.23700
C770        C  0.71248548  0.14761271  0.94981166    -0.00700
H771        H  0.79192630  0.17137422  0.95540735     0.13000
H772        H  0.73874752  0.14287142  0.89576915     0.13100
N773        N  0.05354363  0.60262682  0.91489597    -0.05900
N774        N  0.05705638  0.62487907  0.94364070    -0.58000
N775        N  0.07797984  0.59836409  0.81407050    -0.05600
N776        N  0.09634330  0.61414625  0.77910413    -0.60100
N777        N  0.05073397  0.60030432  0.81093978    -0.05200
N778        N  0.05004690  0.61745498  0.77376385    -0.58000
N779        N  0.08094357  0.60085516  0.91817904    -0.04800
N780        N  0.10351620  0.62194479  0.94926576    -0.60500
C781        C  0.08827197  0.63663624  0.96540930     0.96300
C782        C  0.07842305  0.62566978  0.75388366     0.96100
N783        N  0.07520359  0.50711238  0.82179504    -0.06100
N784        N  0.08663229  0.49558212  0.79290099    -0.58600
N785        N  0.09378156  0.54014749  0.92572321    -0.04200
N786        N  0.11709299  0.55123490  0.95994874    -0.59800
N787        N  0.07516386  0.50661870  0.92654046    -0.06100
N788        N  0.08564326  0.49426427  0.96150746    -0.58800
N789        N  0.09413596  0.54064662  0.82206787    -0.03800
N790        N  0.11845459  0.55233857  0.79368857    -0.59900
Mn791      Mn  0.08755617  0.57063655  0.87024842     1.18400
C792        C  0.11356550  0.52418409  0.77498836     0.98400
C793        C  0.11165752  0.52245931  0.98231978     0.99000
N794        N  0.97276991  0.54778537  0.80680318    -0.06100
N795        N  0.96585846  0.55972145  0.76808944    -0.62400
N796        N  0.95406793  0.51532495  0.91254239    -0.04900
N797        N  0.92984040  0.50504726  0.94063400    -0.63100
N798        N  0.97333957  0.54882322  0.91122206    -0.05600
N799        N  0.96251224  0.56181268  0.93841010    -0.62700
N800        N  0.95359874  0.51436689  0.80854532    -0.04500
N801        N  0.93333120  0.50288052  0.77127352    -0.63400
Mn802      Mn  0.01246147  0.57574024  0.86121124     1.10700
C803        C  0.94137945  0.53131021  0.74597920     0.99600
C804        C  0.93550122  0.53426392  0.95715580     0.99700
N805        N  0.99525842  0.45275774  0.92275199    -0.05600
N806        N  0.99282869  0.43123804  0.95626948    -0.61000
N807        N  0.96630761  0.45513987  0.81633380    -0.04900
N808        N  0.94450770  0.43687611  0.78274256    -0.57700
N809        N  0.99376725  0.45353261  0.81813468    -0.06300
N810        N  0.99107267  0.43406816  0.78571161    -0.60600
N811        N  0.96834334  0.45536520  0.91991536    -0.05200
N812        N  0.94726144  0.43569474  0.95099103    -0.57800
Mn813      Mn  0.03495435  0.47898663  0.87223915     1.20200
Mn814      Mn  0.95969761  0.48443195  0.86469941     1.10100
Cl815      Cl  0.02371059  0.52739381  0.86741577    -0.85700
C816        C  0.96270690  0.42060821  0.97361561     0.96600
C817        C  0.96043706  0.42425808  0.76345999     0.96400
N818        N  0.21530409  0.53106865  0.61740122    -0.03200
C819        C  0.24293906  0.53020321  0.60794290    -0.00600
C820        C  0.26019949  0.52927247  0.64838585    -0.23500
C821        C  0.24296413  0.53002302  0.68324300    -0.23700
C822        C  0.21558438  0.53166427  0.66346961    -0.00700
H823        H  0.28262585  0.52761449  0.65225549     0.13000
H824        H  0.24963369  0.52928504  0.71921049     0.13100
N825        N  0.88415709  0.30652478  0.59965789    -0.03200
C826        C  0.87107494  0.27272714  0.59285320    -0.00600
C827        C  0.87871677  0.25829483  0.63138349    -0.23500
C828        C  0.89446004  0.28260395  0.66365739    -0.23700
C829        C  0.89707611  0.31148991  0.64358801    -0.00700
H830        H  0.86981783  0.23158527  0.63731196     0.13000
H831        H  0.90181444  0.27922835  0.69855326     0.13100
N832        N  0.83602511  0.52950285  0.56840721    -0.03200
C833        C  0.80455117  0.52538652  0.56493185    -0.00600
C834        C  0.79114577  0.51647109  0.60705014    -0.23500
C835        C  0.81495833  0.51583656  0.63740952    -0.23700
C836        C  0.84216967  0.52431787  0.61303936    -0.00700
H837        H  0.76813550  0.51452001  0.61573246     0.13000
H838        H  0.81361147  0.51193924  0.67380150     0.13100
N839        N  0.14357270  0.75050077  0.59354305    -0.03200
C840        C  0.15997902  0.78506787  0.58906605    -0.00600
C841        C  0.16235693  0.79915862  0.62981580    -0.23500
C842        C  0.14726926  0.77274364  0.66057141    -0.23700
C843        C  0.13683587  0.74355042  0.63778800    -0.00700
H844        H  0.17612611  0.82600469  0.63727056     0.13000
H845        H  0.14578937  0.77474040  0.69629484     0.13100
N846        N  0.46734613  0.47347772  0.62130636    -0.05900
N847        N  0.44759306  0.45211117  0.58874058    -0.58000
N848        N  0.50285501  0.48064804  0.72724780    -0.05600
N849        N  0.50765580  0.46424620  0.76268255    -0.60100
N850        N  0.47223047  0.47573480  0.72592021    -0.05200
N851        N  0.45567045  0.45591350  0.76029985    -0.58000
N852        N  0.49817159  0.47884222  0.62266245    -0.04800
N853        N  0.49985458  0.46128368  0.59115847    -0.60500
C854        C  0.46818315  0.44482606  0.56976010     0.96300
C855        C  0.47814217  0.44915946  0.78334116     0.96100
N856        N  0.59023305  0.57781143  0.72325798    -0.06100
N857        N  0.61221756  0.59292900  0.75819338    -0.58600
N858        N  0.57410367  0.54330762  0.62193780    -0.04200
N859        N  0.58944128  0.53456405  0.59571720    -0.59800
N860        N  0.58752388  0.57652383  0.61922368    -0.06100
N861        N  0.61249830  0.59084411  0.59146014    -0.58800
N862        N  0.57700914  0.54473418  0.72622111    -0.03800
N863        N  0.58989400  0.53665913  0.76321681    -0.59900
Mn864      Mn  0.53826472  0.51117072  0.67440703     1.18400
C865        C  0.61194164  0.56704361  0.78278190     0.98400
C866        C  0.61307339  0.56432318  0.57618507     0.99000
N867        N  0.44035044  0.52187048  0.71967190    -0.06100
N868        N  0.41682353  0.50775995  0.74970139    -0.62400
N869        N  0.45112457  0.55426989  0.61326866    -0.04900
N870        N  0.43681675  0.56258888  0.57835828    -0.63100
N871        N  0.43798469  0.52117140  0.61521429    -0.05600
N872        N  0.41455948  0.50634416  0.58160415    -0.62700
N873        N  0.45389796  0.55504411  0.71728012    -0.04500
N874        N  0.43986455  0.56398573  0.74542580    -0.63400
Mn875      Mn  0.45350475  0.49708512  0.67061054     1.10700
C876        C  0.41694097  0.53437494  0.76615538     0.99600
C877        C  0.41389826  0.53238602  0.55894821     0.99700
N878        N  0.55588290  0.62460916  0.61314159    -0.05600
N879        N  0.57318345  0.64777560  0.58163228    -0.61000
N880        N  0.52955224  0.61806334  0.71755212    -0.04900
N881        N  0.52712288  0.63176047  0.75322380    -0.57700
N882        N  0.56020109  0.62321145  0.71797229    -0.06300
N883        N  0.57902900  0.64024202  0.75408635    -0.60600
N884        N  0.52524313  0.61957764  0.61295910    -0.05200
N885        N  0.52121648  0.63900698  0.58126013    -0.57800
Mn886      Mn  0.57434654  0.60147170  0.66763577     1.20200
Mn887      Mn  0.48972648  0.58742115  0.66517793     1.10100
Cl888      Cl  0.51393570  0.54926233  0.66886315    -0.85700
C889        C  0.55114489  0.65638458  0.56146578     0.96600
C890        C  0.55814264  0.64538790  0.77602568     0.96400
N891        N  0.43202083  0.33374452  0.90613474    -0.03200
C892        C  0.42364879  0.30154957  0.89807021    -0.00600
C893        C  0.40466054  0.27997588  0.93288541    -0.23500
C894        C  0.40687722  0.29958113  0.47056202    -0.23700
C895        C  0.42054953  0.33278104  0.94674921    -0.00700
H896        H  0.40147729  0.25343620  0.44774820     0.13000
H897        H  0.39916425  0.29235028  0.50491093     0.13100
N898        N  0.31569713  0.52831989  0.92300463    -0.03200
C899        C  0.28458628  0.52156738  0.93264202    -0.00600
C900        C  0.26461128  0.51658647  0.89251367    -0.23500
C901        C  0.28366233  0.51942046  0.85765943    -0.23700
C902        C  0.31523758  0.52703201  0.87705645    -0.00700
H903        H  0.23888487  0.51128938  0.88888289     0.13000
H904        H  0.27538141  0.51634069  0.82191747     0.13100
N905        N  0.72349434  0.59485887  0.96380296    -0.03200
C906        C  0.75634916  0.60241299  0.96822143    -0.00600
C907        C  0.77320755  0.62132877  0.93063802    -0.23500
C908        C  0.75033030  0.62493079  0.90202409    -0.23700
C909        C  0.71993154  0.60791671  0.92245591    -0.00700
H910        H  0.79811570  0.62796191  0.92208123     0.13000
H911        H  0.75413542  0.63476837  0.86739011     0.13100
N912        N  0.59726943  0.76278533  0.92602547    -0.03200
C913        C  0.60218710  0.79431529  0.92049345    -0.00600
C914        C  0.62047400  0.81052312  0.88284789    -0.23500
C915        C  0.62543798  0.78768580  0.86366132    -0.23700
C916        C  0.61043318  0.75831267  0.89049451    -0.00700
H917        H  0.62482428  0.83417255  0.86692498     0.13000
H918        H  0.63483857  0.79061417  0.83064633     0.13100
C919        C  0.35312947  0.50726575  0.85841812    -0.05500
C920        C  0.34324633  0.53115362  0.85060826     0.00400
C921        C  0.35767543  0.55580171  0.81461913    -0.08200
C922        C  0.38145938  0.55570360  0.78874462    -0.05600
C923        C  0.39099543  0.53155772  0.79589910     0.00400
C924        C  0.37613800  0.50652158  0.83122392    -0.08100
C925        C  0.38405578  0.47879355  0.84003188     0.62300
H926        H  0.34141929  0.48807336  0.88500273     0.13000
H927        H  0.39233346  0.57469428  0.76163506     0.13000
C928        C  0.34937079  0.58297454  0.80103978     0.62500
F929        F  0.36925558  0.45888522  0.87805566    -0.22600
F930        F  0.41890900  0.49323400  0.84679448    -0.20000
F931        F  0.37149877  0.45763397  0.80328349    -0.19700
F932        F  0.37932200  0.61468210  0.80078000    -0.19700
F933        F  0.32859902  0.58442057  0.82954355    -0.20000
F934        F  0.33342336  0.57675944  0.75772583    -0.22700
C935        C  0.33127559  0.49912449  0.48424474    -0.05500
C936        C  0.33964544  0.52786609  0.45648616     0.00400
C937        C  0.37242230  0.55768977  0.46169088    -0.08200
C938        C  0.39635473  0.55712403  0.49386416    -0.05600
C939        C  0.38791327  0.52855110  0.52258470     0.00400
C940        C  0.35461035  0.49881743  0.51780094    -0.08100
C941        C  0.34301473  0.46705608  0.54794723     0.62300
H942        H  0.30600289  0.47671582  0.47890481     0.13000
H943        H  0.42174403  0.57977646  0.49751779     0.13000
C944        C  0.38677658  0.59240097  0.93710998     0.62500
F945        F  0.30893281  0.44246214  0.53859485    -0.22600
F946        F  0.34725334  0.47531022  0.59301853    -0.20000
F947        F  0.36168492  0.45284152  0.54105383    -0.19700
F948        F  0.36128341  0.59338140  0.91044425    -0.19700
F949        F  0.41219581  0.59885046  0.91003178    -0.20000
F950        F  0.40009261  0.61816168  0.96807717    -0.22700
C951        C  0.56337382  0.70128079  0.86767347    -0.05500
C952        C  0.59874500  0.72463438  0.87258637     0.00400
C953        C  0.62061772  0.71836602  0.85141931    -0.08200
C954        C  0.60610725  0.69099864  0.82204598    -0.05600
C955        C  0.57058704  0.66943782  0.81374050     0.00400
C956        C  0.54875895  0.67306313  0.83964785    -0.08100
C957        C  0.51028087  0.64851499  0.83714563     0.62300
H958        H  0.54673516  0.70692490  0.88236657     0.13000
H959        H  0.62305199  0.68754937  0.80387878     0.13000
C960        C  0.65920414  0.74064340  0.85650514     0.62500
F961        F  0.49577348  0.65310605  0.87229826    -0.22600
F962        F  0.50237191  0.61519397  0.84040877    -0.20000
F963        F  0.49579192  0.65371034  0.79674918    -0.19700
F964        F  0.67113506  0.76421061  0.89019692    -0.19700
F965        F  0.67103308  0.75779751  0.81579580    -0.20000
F966        F  0.67249559  0.72035062  0.86731750    -0.22700
C967        C  0.59633712  0.71021541  0.52684491    -0.05500
C968        C  0.56131720  0.68590312  0.52852957     0.00400
C969        C  0.53788618  0.69060369  0.49887038    -0.08200
C970        C  0.55082592  0.71842452  0.46730294    -0.05600
C971        C  0.58591167  0.74085766  0.46369127     0.00400
C972        C  0.60896604  0.73796209  0.49583236    -0.08100
C973        C  0.64715396  0.76344508  0.49909033     0.62300
H974        H  0.61438770  0.70771774  0.55028308     0.13000
H975        H  0.53346972  0.72240284  0.94735078     0.13000
C976        C  0.49957719  0.66576713  0.49845512     0.62500
F977        F  0.65793761  0.77390405  0.54343182    -0.22600
F978        F  0.65678240  0.79225265  0.47189127    -0.20000
F979        F  0.66087405  0.74127884  0.98084845    -0.19700
F980        F  0.48808297  0.66657179  0.53925285    -0.19700
F981        F  0.49171889  0.63313647  0.49145723    -0.20000
F982        F  0.48217029  0.67375507  0.46425140    -0.22700
C983        C  0.64379900  0.59976552  0.85137762    -0.05500
C984        C  0.63540208  0.57266459  0.82357959     0.00400
C985        C  0.65232725  0.55470970  0.83257890    -0.08200
C986        C  0.67796443  0.56555092  0.86821673    -0.05600
C987        C  0.68757490  0.59384231  0.89402522     0.00400
C988        C  0.67000964  0.61093062  0.88633703    -0.08100
C989        C  0.67987865  0.64147238  0.91392292     0.62300
H990        H  0.63053241  0.61309946  0.84425456     0.13000
H991        H  0.69218752  0.55314954  0.87482985     0.13000
C992        C  0.64519133  0.52577142  0.80331675     0.62500
F993        F  0.65923163  0.65422950  0.90158288    -0.22600
F994        F  0.71324125  0.66712416  0.90753110    -0.20000
F995        F  0.67687587  0.63212443  0.95940304    -0.19700
F996        F  0.64928262  0.53658692  0.75830396    -0.19700
F997        F  0.61228786  0.49848216  0.80781888    -0.20000
F998        F  0.66705816  0.51443712  0.81570458    -0.22700
C999        C  0.67473332  0.59550084  0.56187935    -0.05500
C1000       C  0.64133647  0.56843192  0.55069298     0.00400
C1001       C  0.63579984  0.54681259  0.51507232    -0.08200
C1002       C  0.66367549  0.55418766  0.49068093    -0.05600
C1003       C  0.69668797  0.58264988  0.49986039     0.00400
C1004       C  0.70403780  0.60164554  0.03613600    -0.08100
C1005       C  0.73939375  0.63072259  0.05133433     0.62300
H1006       H  0.67882902  0.61130734  0.58981638     0.13000
H1007       H  0.65962767  0.53866213  0.46249791     0.13000
C1008       C  0.60032495  0.51730393  0.50091939     0.62500
F1009       F  0.73901722  0.64712912  0.08813727    -0.22600
F1010       F  0.75314817  0.65457609  0.01636305    -0.20000
F1011       F  0.75999625  0.61808618  0.06432167    -0.19700
F1012       F  0.57845071  0.52891260  0.49151789    -0.19700
F1013       F  0.58841327  0.49281139  0.53544765    -0.20000
F1014       F  0.60002905  0.50197763  0.46245397    -0.22700
C1015       C  0.47615543  0.39192830  0.88389789    -0.05500
C1016       C  0.44418052  0.36230419  0.87449379     0.00400
C1017       C  0.42281909  0.36218057  0.83687211    -0.08200
C1018       C  0.43488935  0.39132344  0.80852088    -0.05600
C1019       C  0.46752372  0.42035918  0.81640603     0.00400
C1020       C  0.48855018  0.42102478  0.85497256    -0.08100
C1021       C  0.52365968  0.45217180  0.86579845     0.62300
H1022       H  0.49149649  0.39165677  0.91375886     0.13000
H1023       H  0.41906286  0.39127227  0.77905028     0.13000
C1024       C  0.38725503  0.33148665  0.82680190     0.62500
F1025       F  0.53702125  0.44948590  0.90872144    -0.22600
F1026       F  0.52203305  0.48111539  0.86406182    -0.20000
F1027       F  0.54552569  0.45568749  0.83464313    -0.19700
F1028       F  0.36919611  0.32113390  0.86519760    -0.19700
F1029       F  0.38951513  0.30518593  0.81268786    -0.20000
F1030       F  0.36906133  0.33862156  0.79280119    -0.22700
C1031       C  0.41813406  0.37921848  0.47590802    -0.05500
C1032       C  0.43610462  0.36274954  0.47841517     0.00400
C1033       C  0.46530229  0.37412732  0.50912863    -0.08200
C1034       C  0.47536849  0.40178048  0.53673746    -0.05600
C1035       C  0.45650315  0.41741999  0.53627858     0.00400
C1036       C  0.42747442  0.40616827  0.50479907    -0.08100
C1037       C  0.40592801  0.42182849  0.50188443     0.62300
H1038       H  0.40919851  0.38353986  0.93312640     0.13000
H1039       H  0.49731407  0.41022405  0.56079813     0.13000
C1040       C  0.48471135  0.35595792  0.51493389     0.62500
F1041       F  0.41418628  0.43730617  0.93098262    -0.22600
F1042       F  0.42641063  0.45690145  0.49681082    -0.20000
F1043       F  0.38886809  0.41343613  0.54093166    -0.19700
F1044       F  0.49244938  0.35127577  0.47339674    -0.19700
F1045       F  0.46505992  0.32450001  0.53607448    -0.20000
F1046       F  0.51505193  0.37428722  0.54122592    -0.22700
C1047       C  0.81439823  0.57780419  0.52576256    -0.05500
C1048       C  0.79406044  0.54094187  0.03083152     0.00400
C1049       C  0.75908824  0.52605656  0.01565223    -0.08200
C1050       C  0.74744277  0.54732088  0.99809639    -0.05600
C1051       C  0.76905549  0.58291052  0.99614706     0.00400
C1052       C  0.80226648  0.59904964  0.51045495    -0.08100
C1053       C  0.82799356  0.63724622  0.51250981     0.62300
H1054       H  0.84099055  0.58945003  0.53779202     0.13000
H1055       H  0.72113294  0.53574086  0.98469616     0.13000
C1056       C  0.73274730  0.48802212  0.01663407     0.62500
F1057       F  0.84484610  0.64504339  0.55528993    -0.22600
F1058       F  0.81332947  0.65646548  0.50455493    -0.20000
F1059       F  0.85164317  0.64666405  0.48093614    -0.19700
F1060       F  0.71935258  0.47768503  0.97281369    -0.19700
F1061       F  0.70668837  0.48154628  0.04243950    -0.20000
F1062       F  0.74572455  0.46858269  0.03441383    -0.22700
C1063       C  0.29168053  0.55147017  0.50001204    -0.05500
C1064       C  0.27375536  0.52122697  0.97920945     0.00400
C1065       C  0.24149321  0.49569974  0.99485466    -0.08200
C1066       C  0.23116585  0.50059988  0.03553339    -0.05600
C1067       C  0.25292681  0.52847384  0.56162420     0.00400
C1068       C  0.28240369  0.55593722  0.54189623    -0.08100
C1069       C  0.30362138  0.59029377  0.56425778     0.62300
H1070       H  0.31393948  0.57232585  0.48474615     0.13000
H1071       H  0.20621924  0.48149620  0.04665165     0.13000
C1072       C  0.21801631  0.46204975  0.97129399     0.62500
F1073       F  0.31698638  0.58693928  0.60671676    -0.22600
F1074       F  0.28342150  0.60323094  0.56845118    -0.20000
F1075       F  0.33053243  0.61370801  0.53908249    -0.19700
F1076       F  0.23505443  0.45448322  0.94344047    -0.19700
F1077       F  0.19204406  0.46319537  0.94588052    -0.20000
F1078       F  0.20387491  0.43566837  0.00325448    -0.22700
C1079       C  0.92051488  0.56095978  0.69304157    -0.05500
C1080       C  0.92156910  0.53157463  0.70369247     0.00400
C1081       C  0.90207725  0.50283977  0.67546083    -0.08200
C1082       C  0.87857037  0.50295812  0.64182454    -0.05600
C1083       C  0.87465024  0.53081809  0.63534630     0.00400
C1084       C  0.89718909  0.56110543  0.65936776    -0.08100
C1085       C  0.89705283  0.59379210  0.65249001     0.62300
H1086       H  0.93653236  0.58351368  0.71311752     0.13000
H1087       H  0.86117853  0.48018845  0.62274200     0.13000
C1088       C  0.90488177  0.47163971  0.68117682     0.62500
F1089       F  0.92883864  0.61999393  0.64032661    -0.22600
F1090       F  0.87448458  0.58957458  0.20425112    -0.20000
F1091       F  0.87309946  0.59183354  0.61921205    -0.19700
F1092       F  0.88784284  0.45201011  0.71815909    -0.19700
F1093       F  0.93877420  0.48148877  0.68720481    -0.20000
F1094       F  0.89067873  0.45153097  0.64328952    -0.22700
C1095       C  0.87648706  0.50789341  0.98054844    -0.05500
C1096       C  0.91046850  0.53557543  0.98375768     0.00400
C1097       C  0.91935301  0.56259227  0.01285061    -0.08200
C1098       C  0.89368264  0.56097782  0.03670044    -0.05600
C1099       C  0.85992203  0.53286848  0.03420679     0.00400
C1100       C  0.85127256  0.50577097  0.00566822    -0.08100
C1101       C  0.81566266  0.47418257  0.00242517     0.62300
H1102       H  0.86972908  0.48742290  0.95830256     0.13000
H1103       H  0.89655646  0.58357704  0.55318001     0.13000
C1104       C  0.95598752  0.59195322  0.02122858     0.62500
F1105       F  0.79344437  0.48293292  0.98140080    -0.22600
F1106       F  0.80569772  0.46038309  0.04524480    -0.20000
F1107       F  0.81366838  0.44918355  0.97724052    -0.19700
F1108       F  0.96680942  0.61219361  0.98235518    -0.19700
F1109       F  0.97677050  0.57936610  0.03366935    -0.20000
F1110       F  0.95339992  0.62081587  0.53750882    -0.22700
C1111       C  0.90939183  0.37157857  0.73319751    -0.05500
C1112       C  0.94347541  0.39771100  0.72870211     0.00400
C1113       C  0.96040737  0.39769931  0.69168332    -0.08200
C1114       C  0.94372715  0.36980588  0.66284804    -0.05600
C1115       C  0.91031830  0.34286406  0.66880683     0.00400
C1116       C  0.89222248  0.34427001  0.70338835    -0.08100
C1117       C  0.85520487  0.31751582  0.71100034     0.62300
H1118       H  0.89617113  0.37206520  0.76091756     0.13000
H1119       H  0.95744296  0.36809346  0.63696020     0.13000
C1120       C  0.99617064  0.42659600  0.68318590     0.62500
F1121       F  0.85367765  0.29962283  0.75112906    -0.22600
F1122       F  0.83882403  0.29463134  0.67625826    -0.20000
F1123       F  0.83757139  0.33348074  0.71433095    -0.19700
F1124       F  0.01830173  0.42574214  0.71703570    -0.19700
F1125       F  0.99824445  0.45744904  0.68315570    -0.20000
F1126       F  0.00601640  0.42404636  0.64188044    -0.22700
C1127       C  0.91886803  0.38969661  0.03008968    -0.05500
C1128       C  0.94553844  0.39215653  0.00774369     0.00400
C1129       C  0.95329581  0.36643831  0.01659564    -0.08200
C1130       C  0.93553937  0.34073246  0.04914762    -0.05600
C1131       C  0.90826960  0.33762759  0.07003280     0.00400
C1132       C  0.89965792  0.36242743  0.06058676    -0.08100
C1133       C  0.86938845  0.35895686  0.08099033     0.62300
H1134       H  0.91266938  0.40903377  0.02283911     0.13000
H1135       H  0.94213170  0.32183378  0.05808217     0.13000
C1136       C  0.97863314  0.36446953  0.99055776     0.62500
F1137       F  0.86426252  0.38496429  0.06610720    -0.22600
F1138       F  0.85900610  0.35332816  0.60938939    -0.20000
F1139       F  0.84027054  0.32823646  0.06874336    -0.19700
F1140       F  0.01122437  0.39179779  0.00079777    -0.19700
F1141       F  0.97012198  0.36452584  0.94442743    -0.20000
F1142       F  0.97865644  0.33493104  0.00125625    -0.22700
C1143       C  0.17301902  0.55226063  0.75051206    -0.05500
C1144       C  0.13871565  0.52540820  0.74488951     0.00400
C1145       C  0.12965600  0.50232789  0.70953876    -0.08200
C1146       C  0.15521927  0.50584641  0.68319526    -0.05600
C1147       C  0.18967798  0.53217845  0.68976073     0.00400
C1148       C  0.19848649  0.55645583  0.72359846    -0.08100
C1149       C  0.23372188  0.58808795  0.73268667     0.62300
H1150       H  0.18026152  0.57063596  0.77651800     0.13000
H1151       H  0.14847054  0.48720429  0.65791300     0.13000
C1152       C  0.09305102  0.47429053  0.69911278     0.62500
F1153       F  0.23125835  0.61658218  0.72782686    -0.22600
F1154       F  0.25735328  0.59267346  0.70390571    -0.20000
F1155       F  0.24580412  0.58624610  0.77675509    -0.19700
F1156       F  0.07286075  0.48802745  0.69351452    -0.19700
F1157       F  0.08276328  0.45056591  0.73458925    -0.20000
F1158       F  0.08872032  0.45776256  0.65970098    -0.22700
C1159       C  0.17114481  0.54889860  0.01273469    -0.05500
C1160       C  0.13704207  0.52261706  0.01666660     0.00400
C1161       C  0.12834338  0.49936545  0.05414771    -0.08200
C1162       C  0.15464823  0.50282024  0.08564536    -0.05600
C1163       C  0.18865019  0.52975161  0.08229113     0.00400
C1164       C  0.19693182  0.55386014  0.04577663    -0.08100
C1165       C  0.23147191  0.58631791  0.04081416     0.62300
H1166       H  0.17769761  0.56687862  0.98420755     0.13000
H1167       H  0.16776405  0.47574511  0.57726989     0.13000
C1168       C  0.09161441  0.47200205  0.06199173     0.62500
F1169       F  0.24558070  0.58429764  0.00324126    -0.22600
F1170       F  0.25383873  0.59271185  0.07831471    -0.20000
F1171       F  0.22744563  0.61382643  0.03451842    -0.19700
F1172       F  0.07845772  0.44816108  0.02844020    -0.19700
F1173       F  0.07236788  0.48663808  0.06140752    -0.20000
F1174       F  0.12675481  0.43574300  0.52575811    -0.22700
C1175       C  0.08856891  0.68612999  0.65438769    -0.05500
C1176       C  0.12345856  0.71024605  0.66081385     0.00400
C1177       C  0.14428455  0.70401240  0.69289878    -0.08200
C1178       C  0.12859327  0.67476561  0.72088440    -0.05600
C1179       C  0.09308037  0.65218671  0.71783826     0.00400
C1180       C  0.07275239  0.65683910  0.68258791    -0.08100
C1181       C  0.03468594  0.63143302  0.67471643     0.62300
H1182       H  0.07349568  0.69146967  0.62889844     0.13000
H1183       H  0.14393167  0.67070495  0.74747380     0.13000
C1184       C  0.18256697  0.72907791  0.69995603     0.62500
F1185       F  0.02174358  0.63767251  0.63354835    -0.22600
F1186       F  0.01760122  0.63352178  0.70855822    -0.20000
F1187       F  0.02826810  0.59872218  0.67434542    -0.19700
F1188       F  0.18902435  0.75634864  0.72442542    -0.19700
F1189       F  0.19974692  0.74364211  0.15292039    -0.20000
F1190       F  0.19853637  0.71393873  0.72362857    -0.22700
C1191       C  0.09307681  0.68825076  0.99366367    -0.05500
C1192       C  0.10550179  0.66636494  0.99640541     0.00400
C1193       C  0.13279163  0.67296661  0.02916052    -0.08200
C1194       C  0.14667354  0.70141398  0.05717795    -0.05600
C1195       C  0.13402671  0.72301798  0.05442078     0.00400
C1196       C  0.10655239  0.71616480  0.02238818    -0.08100
C1197       C  0.08991561  0.73976332  0.52089499     0.62300
H1198       H  0.07231399  0.68320929  0.96879273     0.13000
H1199       H  0.16718792  0.70670349  0.08254342     0.13000
C1200       C  0.14638684  0.64950767  0.03631445     0.62500
F1201       F  0.11178845  0.77014152  0.49892135    -0.22600
F1202       F  0.08430277  0.74632552  0.56277648    -0.20000
F1203       F  0.05888615  0.72373055  0.49556457    -0.19700
F1204       F  0.16274636  0.65141790  0.99879606    -0.19700
F1205       F  0.11980744  0.61626766  0.04325927    -0.20000
F1206       F  0.16958344  0.65826198  0.07377417    -0.22700
C1207       C  0.81120834  0.22370242  0.58546889    -0.05500
C1208       C  0.83956772  0.25000630  0.56317314     0.00400
C1209       C  0.83623065  0.25565425  0.02024346    -0.08200
C1210       C  0.80407172  0.23006361  0.00173413    -0.05600
C1211       C  0.78122113  0.19609820  0.51455658     0.00400
C1212       C  0.78397467  0.19513897  0.56266675    -0.08100
C1213       C  0.76213182  0.16329330  0.59094280     0.62300
H1214       H  0.81197346  0.22383054  0.62212946     0.13000
H1215       H  0.79739161  0.23117065  0.96580114     0.13000
C1216       C  0.86180840  0.28129152  0.98779252     0.62500
F1217       F  0.77959331  0.16304409  0.63158016    -0.22600
F1218       F  0.75353014  0.13452872  0.56837884    -0.20000
F1219       F  0.73321177  0.16198273  0.60103341    -0.19700
F1220       F  0.89241877  0.28308572  0.99641175    -0.19700
F1221       F  0.86626225  0.31276763  0.99205348    -0.20000
F1222       F  0.85097096  0.27226218  0.94293495    -0.22700
C1223       C  0.47796344  0.31744524  0.86670591    -0.05500
C1224       C  0.44316447  0.29296512  0.87026974     0.00400
C1225       C  0.43147730  0.25866852  0.86071312    -0.08200
C1226       C  0.45546944  0.24902072  0.86138287    -0.05600
C1227       C  0.49044052  0.27285097  0.87005033     0.00400
C1228       C  0.50190206  0.30796908  0.86636627    -0.08100
C1229       C  0.53918669  0.33637999  0.86694676     0.62300
H1230       H  0.48767390  0.34407786  0.87039145     0.13000
H1231       H  0.44520690  0.21954546  0.36723865     0.13000
C1232       C  0.39222440  0.22722836  0.36110608     0.62500
F1233       F  0.54772208  0.35641774  0.90419113    -0.22600
F1234       F  0.54439864  0.35644194  0.82793858    -0.20000
F1235       F  0.56073060  0.32437250  0.86873350    -0.19700
F1236       F  0.37086030  0.23946615  0.35989822    -0.19700
F1237       F  0.38481841  0.20396286  0.39694256    -0.20000
F1238       F  0.38574632  0.21058841  0.32106798    -0.22700
C1239       C  0.65393694  0.10151782  0.56332983    -0.05500
C1240       C  0.64627310  0.12463409  0.57754886     0.00400
C1241       C  0.66507080  0.15905110  0.56077947    -0.08200
C1242       C  0.68962821  0.16820052  0.52905148    -0.05600
C1243       C  0.69722278  0.14486082  0.51553493     0.00400
C1244       C  0.67916995  0.11080638  0.53352562    -0.08100
C1245       C  0.68558461  0.08295708  0.52443144     0.62300
H1246       H  0.64018547  0.07536843  0.57613440     0.13000
H1247       H  0.70323998  0.19714377  0.02534630     0.13000
C1248       C  0.66066831  0.18648004  0.57730275     0.62500
F1249       F  0.69573680  0.07297918  0.56495547    -0.22600
F1250       F  0.71029349  0.09291975  0.49452824    -0.20000
F1251       F  0.65568329  0.05475852  0.50734616    -0.19700
F1252       F  0.66707312  0.18862000  0.62392499    -0.19700
F1253       F  0.62792862  0.17891736  0.56575837    -0.20000
F1254       F  0.67975387  0.21997816  0.06667960    -0.22700
C1255       C  0.65171958  0.10688157  0.92802306    -0.05500
C1256       C  0.68039671  0.13976942  0.92425707     0.00400
C1257       C  0.67919458  0.16366294  0.89273143    -0.08200
C1258       C  0.65054618  0.15222405  0.86162384    -0.05600
C1259       C  0.62334952  0.11809490  0.86241940     0.00400
C1260       C  0.62241790  0.09603185  0.89875697    -0.08100
C1261       C  0.59145345  0.06094677  0.90784264     0.62300
H1262       H  0.65244613  0.08913869  0.95304235     0.09400
H1263       H  0.65045636  0.16914748  0.83442749     0.13000
C1264       C  0.70846315  0.20068486  0.89122702     0.62500
F1265       F  0.58466348  0.05808674  0.95291529    -0.22600
F1266       F  0.59809295  0.03627538  0.89940115    -0.20000
F1267       F  0.56248997  0.05497606  0.88176245    -0.19700
F1268       F  0.73744906  0.20299769  0.87884408    -0.19700
F1269       F  0.71506251  0.21442031  0.93360523    -0.20000
F1270       F  0.70095497  0.22009099  0.86037052    -0.22700
C1271       C  0.53034309  0.18139400  0.46549879    -0.05500
C1272       C  0.51058051  0.19558612  0.46759282     0.00400
C1273       C  0.48388626  0.18090334  0.49735074    -0.08200
C1274       C  0.47995509  0.15419619  0.52712489    -0.05600
C1275       C  0.50186139  0.14209532  0.52815455     0.00400
C1276       C  0.52585992  0.15413672  0.49465835    -0.08100
C1277       C  0.54688579  0.13903194  0.48756579     0.62300
H1278       H  0.54991968  0.19214771  0.44151618     0.13000
H1279       H  0.46141429  0.14447424  0.55238544     0.13000
C1280       C  0.46099070  0.19472946  0.50000442     0.62500
F1281       F  0.54248501  0.13064610  0.44249272    -0.22600
F1282       F  0.53773572  0.10980841  0.51369155    -0.20000
F1283       F  0.58092779  0.16295223  0.49772816    -0.19700
F1284       F  0.44803379  0.19791070  0.45714752    -0.19700
F1285       F  0.47934425  0.22628681  0.51974898    -0.20000
F1286       F  0.43364391  0.17335696  0.52571495    -0.22700
C1287       C  0.47002617  0.17475975  0.86317869    -0.05500
C1288       C  0.49885026  0.20798022  0.86517311     0.00400
C1289       C  0.52550264  0.21736469  0.83696054    -0.08200
C1290       C  0.52284867  0.19287965  0.80887925    -0.05600
C1291       C  0.49466721  0.15918597  0.80792730     0.00400
C1292       C  0.46732908  0.15008280  0.83503421    -0.08100
C1293       C  0.43647973  0.11411667  0.83673619     0.62300
H1294       H  0.45029343  0.16799833  0.88565967     0.13000
H1295       H  0.54327782  0.20000204  0.78749129     0.13000
C1296       C  0.55697231  0.25306493  0.83672449     0.62500
F1297       F  0.41443075  0.11016612  0.86806410    -0.22600
F1298       F  0.44719228  0.09185728  0.84903857    -0.20000
F1299       F  0.41857086  0.10592008  0.79470604    -0.19700
F1300       F  0.57164236  0.26231387  0.88035333    -0.19700
F1301       F  0.54771142  0.27541146  0.81840297    -0.20000
F1302       F  0.58142191  0.25577746  0.81073625    -0.22700
C1303       C  0.21231454  0.85833752  0.00482762    -0.05500
C1304       C  0.23265894  0.84923473  0.98610288     0.00400
C1305       C  0.23605607  0.82321690  0.52068339    -0.08200
C1306       C  0.20865373  0.80041003  0.54662178    -0.05600
C1307       C  0.18291699  0.80624613  0.55365383     0.00400
C1308       C  0.18678222  0.83587405  0.03354154    -0.08100
C1309       C  0.16418634  0.84731364  0.04828541     0.62300
H1310       H  0.21505816  0.88258234  0.99465461     0.13000
H1311       H  0.20767956  0.77825826  0.56295910     0.13000
C1312       C  0.26340664  0.81591883  0.51450325     0.62500
F1313       F  0.14810259  0.85273755  0.49843131    -0.22600
F1314       F  0.17356533  0.87438421  0.56672176    -0.20000
F1315       F  0.13562080  0.82135511  0.06831141    -0.19700
F1316       F  0.29442448  0.84225120  0.53206753    -0.19700
F1317       F  0.24482027  0.80726833  0.92910796    -0.20000
F1318       F  0.25726882  0.78606901  0.53690739    -0.22700
C1319       C  0.31156807  0.93116670  0.51706544    -0.05500
C1320       C  0.31550213  0.90989900  0.49040729     0.00400
C1321       C  0.34686727  0.91123333  0.49546537    -0.08200
C1322       C  0.37312675  0.93424053  0.52587759    -0.05600
C1323       C  0.36932008  0.95551034  0.55248548     0.00400
C1324       C  0.33788691  0.95401109  0.54813793    -0.08100
C1325       C  0.33178242  0.97590007  0.57634018     0.62300
H1326       H  0.28778075  0.93031811  0.51225473     0.13000
H1327       H  0.39702486  0.93516500  0.52943259     0.13000
C1328       C  0.35415300  0.88864567  0.47100080     0.62500
F1329       F  0.29869175  0.96852694  0.56907468    -0.22600
F1330       F  0.35352925  0.00994047  0.56498396    -0.20000
F1331       F  0.33746222  0.97031885  0.62199742    -0.19700
F1332       F  0.37782744  0.91015785  0.93727539    -0.19700
F1333       F  0.32581450  0.86339842  0.44733379    -0.20000
F1334       F  0.36589142  0.87290984  0.50230471    -0.22700
C1335       C  0.34262259  0.95457279  0.88594306    -0.05500
C1336       C  0.32035831  0.92008799  0.87552103     0.00400
C1337       C  0.32620872  0.90661422  0.83850025    -0.08200
C1338       C  0.35325104  0.92869014  0.81200083    -0.05600
C1339       C  0.37517966  0.96329298  0.82161884     0.00400
C1340       C  0.37009602  0.97657219  0.85930982    -0.08100
C1341       C  0.39297992  0.01384147  0.87043069     0.62300
H1342       H  0.33732997  0.96451521  0.91369663     0.13000
H1343       H  0.35720693  0.91867342  0.78296990     0.13000
C1344       C  0.30411018  0.86962972  0.82406168     0.62500
F1345       F  0.38551501  0.02111375  0.91049097    -0.22600
F1346       F  0.38850264  0.03302413  0.83574649    -0.20000
F1347       F  0.42666085  0.02291012  0.87488801    -0.19700
F1348       F  0.28284043  0.86748873  0.78657059    -0.19700
F1349       F  0.28751291  0.84360424  0.37220463    -0.20000
F1350       F  0.32450760  0.85843474  0.81240878    -0.22700
C1351       C  0.54747442  0.78986820  0.90373601    -0.05500
C1352       C  0.57740621  0.80231819  0.93241492     0.00400
C1353       C  0.58562926  0.82506350  0.46307951    -0.08200
C1354       C  0.56361086  0.83652692  0.46703647    -0.05600
C1355       C  0.53171955  0.82320980  0.94151463     0.00400
C1356       C  0.52442581  0.80002736  0.90745939    -0.08100
C1357       C  0.49340871  0.78555185  0.87381215     0.62300
H1358       H  0.54250211  0.77256989  0.87720603     0.13000
H1359       H  0.56837464  0.85295325  0.49454514     0.13000
C1360       C  0.61606644  0.83560010  0.49690500     0.62500
F1361       F  0.47134542  0.79572736  0.88087617    -0.22600
F1362       F  0.47563905  0.75031362  0.87672566    -0.20000
F1363       F  0.50409858  0.79603193  0.83041814    -0.19700
F1364       F  0.61888516  0.85753329  0.52861435    -0.19700
F1365       F  0.64574297  0.85186476  0.47458401    -0.20000
F1366       F  0.61250596  0.80690939  0.51979091    -0.22700
C1367       C  0.53899329  0.91989017  0.52512580    -0.05500
C1368       C  0.50643261  0.89750421  0.50473844     0.00400
C1369       C  0.47933077  0.90178613  0.51059997    -0.08200
C1370       C  0.48527602  0.92705024  0.53950845    -0.05600
C1371       C  0.51694946  0.94737827  0.56376363     0.00400
C1372       C  0.54503600  0.94518885  0.55458377    -0.08100
C1373       C  0.58061110  0.96765194  0.57710830     0.62300
H1374       H  0.55907596  0.91543707  0.52098636     0.13000
H1375       H  0.46404679  0.92956844  0.54490491     0.13000
C1376       C  0.44336761  0.87973824  0.48920105     0.62500
F1377       F  0.60393541  0.96189042  0.56096739    -0.22600
F1378       F  0.58031756  0.96108138  0.62343317    -0.20000
F1379       F  0.59174290  0.00160857  0.56834785    -0.19700
F1380       F  0.42139687  0.86217922  0.52311366    -0.19700
F1381       F  0.43987048  0.85636686  0.45958135    -0.20000
F1382       F  0.43392169  0.90048599  0.46528215    -0.22700
C1383       C  0.48782694  0.87224495  0.88052352    -0.05500
C1384       C  0.51642267  0.88329847  0.91137262     0.00400
C1385       C  0.54498420  0.91683756  0.90591698    -0.08200
C1386       C  0.54290270  0.93872629  0.87179205    -0.05600
C1387       C  0.51341964  0.92833611  0.84249977     0.00400
C1388       C  0.48555226  0.89380393  0.84614954    -0.08100
C1389       C  0.45305901  0.87918205  0.81493352     0.62300
H1390       H  0.46607363  0.84681364  0.88582340     0.13000
H1391       H  0.56455787  0.96462603  0.86870638     0.13000
C1392       C  0.57815457  0.93093753  0.93489746     0.62500
F1393       F  0.43141863  0.84438409  0.82202818    -0.22600
F1394       F  0.46095675  0.88444008  0.77010628    -0.20000
F1395       F  0.43549043  0.89445792  0.82273423    -0.19700
F1396       F  0.60462622  0.94265137  0.90714703    -0.19700
F1397       F  0.57852435  0.90684436  0.96465841    -0.20000
F1398       F  0.58370237  0.95787969  0.95934225    -0.22700
loop_ 
_geom_bond_atom_site_label_1 
_geom_bond_atom_site_label_2 
_geom_bond_distance 
_geom_bond_site_symmetry_2 
_ccdc_geom_bond_type 
N1            C2   1.361       .  A
N1          C704   1.353       .  A
N1          C685   1.449       .  S
C2          C656   1.471       .  S
C2          C702   1.385       .  A
C3            C4   1.368   1_556  A
C3          C701   1.384       .  A
C3            H6   1.083   1_556  S
C4            C5   1.377   1_554  A
C4            H7   1.082       .  S
C5          N700   1.352       .  A
C5          C669   1.463   1_556  S
N8          C711   1.363       .  A
N8          C708   1.363       .  A
N8          C621   1.454       .  S
C9          N707   1.361       .  A
C9          C605   1.472       .  S
C9           C10   1.381       .  A
C10          C11   1.362       .  A
C10          H13   1.083       .  S
C11          C12   1.380       .  A
C11          H14   1.082       .  S
C12         N707   1.360       .  A
C12         C637   1.467       .  S
N15          N16   1.322       .  A
N15          N21   1.317       .  A
N15         Mn44   2.209       .  S
N16          C23   1.355       .  A
N17          N19   1.312       .  A
N17          N18   1.316       .  A
N17         Mn33   2.195       .  S
N18          C24   1.353       .  A
N19          N20   1.329       .  A
N19         Mn44   2.220       .  S
N20          C24   1.360       .  A
N21          N22   1.315       .  A
N21         Mn33   2.194       .  S
N22          C23   1.351       .  A
C23         C560   1.472       .  S
C24         C541   1.506       .  S
N25          N31   1.315       .  A
N25          N26   1.313       .  A
N25         Mn55   2.176       .  S
N26          C34   1.350       .  A
N27          N28   1.325       .  A
N27          N29   1.310       .  A
N27         Mn33   2.207   1_565  S
N28          C35   1.359       .  A
N29          N30   1.319       .  A
N29         Mn55   2.195       .  S
N30          C35   1.352       .  A
N31          N32   1.319       .  A
N31         Mn33   2.202   1_565  S
N32          C34   1.354       .  A
Mn33        Cl57   2.550       .  S
C34         C672   1.476       .  S
C35         C688   1.505       .  S
N36          N37   1.316       .  A
N36          N42   1.319       .  A
N36         Mn44   2.202       .  S
N37          C45   1.350       .  A
N38          N40   1.315       .  A
N38          N39   1.327       .  A
N38         Mn56   2.220       .  S
N39          C46   1.358       .  A
N40          N41   1.318       .  A
N40         Mn44   2.202       .  S
N41          C46   1.352       .  A
N42          N43   1.322       .  A
N42         Mn56   2.220       .  S
N43          C45   1.357       .  A
Mn44        Cl57   2.542       .  S
C45         C576   1.475       .  S
C46         C592   1.492       .  S
N47          N48   1.311       .  A
N47          N53   1.316   1_565  A
N47         Mn55   2.172       .  S
N48          C58   1.347       .  A
N49          N50   1.328       .  A
N49          N51   1.313   1_545  A
N49         Mn56   2.233       .  S
N50          C59   1.361   1_545  A
N51          N52   1.321       .  A
N51         Mn55   2.196       .  S
N52          C59   1.352       .  A
N53          N54   1.325       .  A
N53         Mn56   2.223       .  S
N54          C58   1.359   1_545  A
Mn55        Cl57   2.524   1_565  S
Mn56        Cl57   2.571       .  S
C58         C640   1.472       .  S
C59         C624   1.502       .  S
N60          C64   1.358       .  A
N60          C61   1.362       .  A
N60         C589   1.451       .  S
C61         C528   1.487       .  S
C61         C761   1.389       .  A
C62          C63   1.369       .  A
C62         C760   1.390       .  A
C62          H65   1.082       .  S
C63         C763   1.376       .  A
C63          H66   1.082   1_556  S
C64        C1272   1.477       .  S
C64         C762   1.376       .  A
N67          C68   1.363       .  A
N67         C770   1.353       .  A
N67         C544   1.444   1_556  S
C68         C512   1.493   1_556  S
C68         C768   1.392       .  A
C69          C70   1.371       .  A
C69         C767   1.393       .  A
C69          H72   1.083       .  S
C70          C71   1.374       .  A
C70          H73   1.082       .  S
C71         N766   1.355       .  A
C71         C557   1.475       .  S
N74          N75   1.323       .  A
N74          N80   1.318       .  A
N74        Mn103   2.220       .  S
N75          C82   1.358       .  A
N76          N78   1.314       .  A
N76          N77   1.319       .  A
N76         Mn92   2.186       .  S
N77          C83   1.354       .  A
N78          N79   1.318       .  A
N78        Mn103   2.197       .  S
N79          C83   1.351       .  A
N80          N81   1.326       .  A
N80         Mn92   2.241       .  S
N81          C82   1.358       .  A
C82         C493   1.510       .  S
C83         C480   1.479       .  S
N84          N90   1.316       .  A
N84          N85   1.327       .  A
N84        Mn114   2.245       .  S
N85          C93   1.360       .  A
N86          N87   1.315       .  A
N86          N88   1.316       .  A
N86         Mn92   2.194       .  S
N87          C94   1.352       .  A
N88          N89   1.322       .  A
N88        Mn114   2.207       .  S
N89          C94   1.355       .  A
N90          N91   1.328       .  A
N90         Mn92   2.236       .  S
N91          C93   1.359       .  A
Mn92       Cl116   2.553       .  S
C93         C445   1.520       .  S
C94         C461   1.488       .  S
N95          N96   1.322       .  A
N95         N101   1.314       .  A
N95        Mn103   2.203   1_655  S
N96         C104   1.355       .  A
N97          N99   1.317       .  A
N97          N98   1.325       .  A
N97        Mn115   2.233       .  S
N98         C105   1.360       .  A
N99         N100   1.324       .  A
N99        Mn103   2.223   1_655  S
N100        C105   1.356       .  A
N101        N102   1.318       .  A
N101       Mn115   2.194       .  S
N102        C104   1.351       .  A
Mn103      Cl116   2.557       .  S
C104        C381   1.478       .  S
C105        C397   1.512       .  S
N106        N107   1.324       .  A
N106        N112   1.317       .  A
N106       Mn114   2.247   1_655  S
N107        C117   1.359       .  A
N108        N109   1.322       .  A
N108        N110   1.315       .  A
N108       Mn115   2.213       .  S
N109        C118   1.354       .  A
N110        N111   1.320       .  A
N110       Mn114   2.198   1_655  S
N111        C118   1.352       .  A
N112        N113   1.323       .  A
N112       Mn115   2.207       .  S
N113        C117   1.356       .  A
Mn114      Cl116   2.556       .  S
Mn115      Cl116   2.556   1_655  S
C117        C429   1.512       .  S
C118        C413   1.476       .  S
N119        C123   1.370       .  A
N119        C120   1.371       .  A
N119       C1163   1.438       .  S
C120        C368   1.514       .  S
C120        C121   1.384       .  A
C121        C122   1.382       .  A
C121        H124   1.082       .  S
C122        C123   1.385       .  A
C122        H125   1.082       .  S
C123        C448   1.521       .  S
N126        C130   1.361       .  A
N126        C127   1.368       .  A
N126       C1131   1.444       .  S
C127        C509   1.505       .  S
C127        C128   1.390       .  A
C128        C129   1.366       .  A
C128        H131   1.083       .  S
C129        C130   1.374       .  A
C129        H132   1.082       .  S
C130        C416   1.483       .  S
N133        C137   1.355       .  A
N133        C134   1.367       .  A
N133       C1099   1.452       .  S
C134       C1048   1.484       .  S
C134        C135   1.387       .  A
C135        C136   1.369       .  A
C135        H138   1.083       .  S
C136        C137   1.377       .  A
C136        H139   1.082       .  S
C137        C384   1.473       .  S
N140        C144   1.354       .  A
N140        C141   1.363       .  A
N140       C1195   1.451       .  S
C141        C608   1.479       .  S
C141        C142   1.385       .  A
C142        C143   1.368       .  A
C142        H145   1.082       .  S
C143        C144   1.378       .  A
C143        H146   1.082       .  S
C144        C477   1.468       .  S
N147        N148   1.325       .  A
N147        N153   1.318       .  A
N147       Mn176   2.237       .  S
N148        C155   1.357       .  A
N149        N151   1.316       .  A
N149        N150   1.323       .  A
N149       Mn165   2.214       .  S
N150        C156   1.355       .  A
N151        N152   1.319       .  A
N151       Mn176   2.199       .  S
N152        C156   1.354       .  A
N153        N154   1.320       .  A
N153       Mn165   2.203       .  S
N154        C155   1.354       .  A
C155        C336   1.488       .  S
C156        C320   1.487       .  S
N157        N163   1.314       .  A
N157        N158   1.317       .  A
N157       Mn187   2.189       .  S
N158        C166   1.351       .  A
N159        N160   1.326       .  A
N159        N161   1.317       .  A
N159       Mn165   2.230       .  S
N160        C167   1.356       .  A
N161        N162   1.327       .  A
N161       Mn187   2.236       .  S
N162        C167   1.360       .  A
N163        N164   1.321       .  A
N163       Mn165   2.203       .  S
N164        C166   1.355       .  A
Mn165      Cl189   2.552       .  S
C166        C285   1.482       .  S
C167        C301   1.507       .  S
N168        N169   1.331       .  A
N168        N174   1.316       .  A
N168       Mn176   2.253       .  S
N169        C177   1.363       .  A
N170        N172   1.314       .  A
N170        N171   1.318       .  A
N170       Mn188   2.190       .  S
N171        C178   1.353       .  A
N172        N173   1.319       .  A
N172       Mn176   2.199       .  S
N173        C178   1.353       .  A
N174        N175   1.324       .  A
N174       Mn188   2.228       .  S
N175        C177   1.357       .  A
Mn176      Cl189   2.556       .  S
C177        C224   1.514       .  S
C178        C240   1.481       .  S
N179        N180   1.322       .  A
N179        N185   1.317       .  A
N179       Mn187   2.219       .  S
N180        C190   1.359       .  A
N181        N182   1.318       .  A
N181        N183   1.313       .  A
N181       Mn188   2.188       .  S
N182        C191   1.352       .  A
N183        N184   1.320       .  A
N183       Mn187   2.202       .  S
N184        C191   1.354       .  A
N185        N186   1.323       .  A
N185       Mn188   2.220       .  S
N186        C190   1.354       .  A
Mn187      Cl189   2.556       .  S
Mn188      Cl189   2.550       .  S
C190        C269   1.501       .  S
C191        C256   1.487       .  S
N192        C196   1.356       .  A
N192        C193   1.365       .  A
N192        C317   1.445       .  S
C193        C525   1.501       .  S
C193        C194   1.390       .  A
C194        C894   1.373       .  A
C194        H896   1.080       .  S
C195        C893   1.376       .  A
C195        C895   1.378       .  A
C195        H198   1.082       .  S
C196       C1032   1.481       .  S
C196        C894   1.377       .  A
H197        C893   1.080       .  S
N199        C203   1.366       .  A
N199        C200   1.365       .  A
N199        C936   1.431       .  S
C200        C365   1.516       .  S
C200        C201   1.384       .  A
C201        C202   1.385       .  A
C201        H204   1.081       .  S
C202        C203   1.387       .  A
C202        H205   1.081       .  S
C203        C221   1.519       .  S
N206        C210   1.357       .  A
N206        C207   1.366       .  A
N206       C1003   1.457       .  S
C207        C352   1.485       .  S
C207        C208   1.385       .  A
C208        C209   1.367       .  A
C208        H211   1.082       .  S
C209        C210   1.378       .  A
C209        H212   1.083       .  S
C210        C288   1.472       .  S
N213        C217   1.355       .  A
N213        C214   1.354       .  A
N213        C971   1.445       .  S
C214        C653   1.470       .  S
C214        C215   1.383       .  A
C215        C216   1.373       .  A
C215        H218   1.082       .  S
C216        C217   1.383       .  A
C216        H219   1.082       .  S
C217        C253   1.480       .  S
C220        C221   1.412       .  A
C220        C225   1.425       .  A
C220        H227   1.082       .  S
C221        C222   1.427       .  A
C222        C223   1.415       .  A
C222        C229   1.520       .  S
C223        C224   1.405       .  A
C223        H228   1.084       .  S
C224        C225   1.423       .  A
C225        C226   1.517       .  S
C226        F230   1.385       .  S
C226        F231   1.383       .  S
C226        F232   1.382       .  S
C229        F233   1.385       .  S
C229        F234   1.381       .  S
C229        F235   1.383       .  S
C236        C237   1.400       .  A
C236        C241   1.404   1_556  A
C236        H243   1.083       .  S
C237        N898   1.437       .  S
C237        C238   1.416       .  A
C238        C239   1.402       .  A
C238        C944   1.516       .  S
C239        C240   1.405   1_556  A
C239        H244   1.085       .  S
C240        C241   1.421       .  A
C241        C242   1.519       .  S
C242        F246   1.385       .  S
C242        F247   1.384       .  S
C242        F248   1.382       .  S
C245        C937   1.516       .  S
C245        F249   1.380       .  S
C245        F250   1.383       .  S
C245        F251   1.384       .  S
C252        C253   1.403       .  A
C252        C257   1.402       .  A
C252        H259   1.078       .  S
C253        C254   1.413       .  A
C254        C255   1.403       .  A
C254        C261   1.517       .  S
C255        C256   1.408       .  A
C255        H260   1.084       .  S
C256        C257   1.422       .  A
C257        C258   1.522       .  S
C258        F262   1.386       .  S
C258        F263   1.383       .  S
C258        F264   1.383       .  S
C261        F265   1.382       .  S
C261        F266   1.383       .  S
C261        F267   1.383       .  S
C268        C269   1.405       .  A
C268        C273   1.403   1_554  A
C268        H275   1.084       .  S
C269        C270   1.428       .  A
C270        C271   1.416   1_554  A
C270        C277   1.519   1_554  S
C271        C272   1.402       .  A
C271        H975   1.082       .  S
C272        N912   1.446       .  S
C272        C273   1.417       .  A
C273        C274   1.517       .  S
C274        F278   1.384   1_556  S
C274        F279   1.381       .  S
C274        F979   1.383       .  S
H276        C970   1.082       .  S
C277        F281   1.382   1_556  S
C277        F282   1.383       .  S
C277        F283   1.385       .  S
F280        C973   1.382       .  S
C284        C285   1.409       .  A
C284        C289   1.406       .  A
C284        H291   1.083       .  S
C285        C286   1.419       .  A
C286        C287   1.403       .  A
C286        C293   1.518       .  S
C287        C288   1.401       .  A
C287        H292   1.084       .  S
C288        C289   1.406       .  A
C289        C290   1.515       .  S
C290        F294   1.384       .  S
C290        F295   1.383       .  S
C290        F296   1.382       .  S
C293        F297   1.383       .  S
C293        F298   1.379       .  S
C293        F299   1.385       .  S
C300        C301   1.405       .  A
C300       C1004   1.416       .  A
C300        H307   1.083       .  S
C301        C302   1.423       .  A
C302        C303   1.418   1_554  A
C302        C309   1.517   1_554  S
C303        C304   1.406       .  A
C303        H308   1.081       .  S
C304        N905   1.460       .  S
C304       C1004   1.423   1_556  A
C305        C999   1.414       .  A
C305       C1003   1.421       .  A
C305        C306   1.516       .  S
C306        F310   1.384       .  S
C306        F311   1.383       .  S
C306        F312   1.381       .  S
C309        F313   1.383       .  S
C309        F314   1.382   1_556  S
C309        F315   1.385       .  S
C316        C317   1.403       .  A
C316        C321   1.408       .  A
C316        H323   1.079       .  S
C317        C318   1.414       .  A
C318        C319   1.405       .  A
C318        C325   1.516       .  S
C319        C320   1.404       .  A
C319        H324   1.083       .  S
C320        C321   1.419       .  A
C321        C322   1.515       .  S
C322        F326   1.385       .  S
C322        F327   1.383       .  S
C322        F328   1.381       .  S
C325        F329   1.383       .  S
C325        F330   1.380       .  S
C325        F331   1.385       .  S
C332        C333   1.404       .  A
C332        C337   1.414       .  A
C332       H1038   1.083       .  S
C333        C895   1.488       .  S
C333        C334   1.420   1_556  A
C334        C335   1.405       .  A
C334        C341   1.522       .  S
C335        C336   1.402       .  A
C335        H340   1.083       .  S
C336        C337   1.419   1_554  A
C337        C338   1.517       .  S
C338        F343   1.384       .  S
C338        F344   1.381   1_556  S
C338       F1041   1.385       .  S
H339       C1031   1.083       .  S
C341        F345   1.384   1_554  S
C341        F346   1.381       .  S
C341        F347   1.384       .  S
F342       C1037   1.385       .  S
C348        C353   1.407       .  A
C348       C1048   1.402       .  A
C348        H355   1.084       .  S
C349        C833   1.480       .  S
C349        C350   1.423       .  A
C349       C1047   1.401       .  A
C350        C351   1.405       .  A
C350        C357   1.519       .  S
C351        C352   1.402       .  A
C351        H356   1.084       .  S
C352       C1052   1.424       .  A
C353       C1051   1.425   1_554  A
C353        C354   1.521       .  S
C354        F358   1.385       .  S
C354        F359   1.381       .  S
C354        F360   1.383   1_554  S
C357        F361   1.384       .  S
C357        F362   1.383       .  S
C357        F363   1.380       .  S
C364        C369   1.415       .  A
C364       C1064   1.402   1_554  A
C364        H371   1.084   1_554  S
C365        C366   1.425       .  A
C365       C1063   1.406       .  A
C366        C367   1.419       .  A
C366        C373   1.519       .  S
C367       C1067   1.405       .  A
C367        H372   1.080       .  S
C368        C369   1.431       .  A
C368       C1066   1.408       .  A
C369        C370   1.520       .  S
C370        F374   1.384       .  S
C370        F375   1.378       .  S
C370        F376   1.384       .  S
C373        F377   1.382       .  S
C373        F378   1.381       .  S
C373        F379   1.385       .  S
C380        C381   1.401       .  A
C380        C385   1.401       .  A
C380        H387   1.084       .  S
C381        C382   1.419       .  A
C382        C383   1.407       .  A
C382        C389   1.516       .  S
C383        C384   1.399       .  A
C383        H388   1.084       .  S
C384        C385   1.417       .  A
C385        C386   1.519       .  S
C386        F390   1.384       .  S
C386        F392   1.381       .  S
C386       F1090   1.383       .  S
C389        F393   1.381       .  S
C389        F394   1.384       .  S
C389        F395   1.385       .  S
F391       C1085   1.383       .  S
C396        C397   1.409       .  A
C396        C401   1.414       .  A
C396        H403   1.082       .  S
C397        C398   1.428       .  A
C398        C399   1.417       .  A
C398        C405   1.519       .  S
C399        C400   1.403       .  A
C399       H1103   1.079       .  S
C400        N832   1.455       .  S
C400        C401   1.417       .  A
C401        C402   1.514       .  S
C402        F406   1.381       .  S
C402        F407   1.383       .  S
C402        F408   1.384       .  S
H404       C1098   1.082       .  S
C405        F409   1.383       .  S
C405        F410   1.383       .  S
C405       F1110   1.385       .  S
F411       C1104   1.385       .  S
C412        C413   1.401       .  A
C412        C417   1.406       .  A
C412        H419   1.083       .  S
C413        C414   1.415       .  A
C414        C415   1.407       .  A
C414        C421   1.517       .  S
C415        C416   1.402       .  A
C415        H420   1.081       .  S
C416        C417   1.419       .  A
C417        C418   1.521       .  S
C418        F422   1.382       .  S
C418        F423   1.384       .  S
C418        F424   1.385       .  S
C421        F425   1.382   1_655  S
C421        F426   1.383       .  S
C421        F427   1.385   1_655  S
C428        C429   1.416       .  A
C428        C433   1.416       .  A
C428        H435   1.082       .  S
C429        C430   1.427       .  A
C430        C431   1.411       .  A
C430        C437   1.519       .  S
C431        C432   1.403       .  A
C431        H436   1.082       .  S
C432        N825   1.449       .  S
C432        C433   1.409       .  A
C433        C434   1.513       .  S
C434        F438   1.384       .  S
C434        F440   1.383       .  S
C434       F1138   1.382       .  S
C437        F441   1.383   1_655  S
C437        F442   1.383       .  S
C437        F443   1.385       .  S
F439       C1133   1.380       .  S
C444        C445   1.410       .  A
C444        C449   1.422       .  A
C444        H451   1.083       .  S
C445        C446   1.425       .  A
C446        C447   1.419       .  A
C446        C453   1.518       .  S
C447        C448   1.408       .  A
C447        H452   1.083       .  S
C448        C449   1.426       .  A
C449        C450   1.517       .  S
C450        F454   1.385       .  S
C450        F455   1.382       .  S
C450        F456   1.380       .  S
C453        F457   1.383       .  S
C453        F458   1.384       .  S
C453        F459   1.385       .  S
C460        C461   1.406       .  A
C460        C465   1.398       .  A
C460        H467   1.085       .  S
C461        C462   1.423       .  A
C462        C463   1.407       .  A
C462        C469   1.519       .  S
C463        C464   1.400       .  A
C463       H1167   1.081       .  S
C464        N818   1.435       .  S
C464        C465   1.412       .  A
C465        C466   1.515       .  S
C466        F470   1.384       .  S
C466        F471   1.376       .  S
C466        F472   1.383       .  S
H468       C1162   1.082       .  S
C469        F473   1.383       .  S
C469        F474   1.382       .  S
C469       F1174   1.385       .  S
F475       C1168   1.385       .  S
C476        C477   1.399       .  A
C476        C481   1.406       .  A
C476        H483   1.083       .  S
C477        C478   1.414       .  A
C478        C479   1.399       .  A
C478        C485   1.520       .  S
C479        C480   1.403       .  A
C479        H484   1.084       .  S
C480        C481   1.422       .  A
C481        C482   1.519       .  S
C482        F486   1.385       .  S
C482        F487   1.383       .  S
C482        F488   1.384       .  S
C485        F489   1.383       .  S
C485        F491   1.384       .  S
C485       F1189   1.382       .  S
F490       C1184   1.382       .  S
C492        C493   1.409       .  A
C492        C497   1.413       .  A
C492        H499   1.082       .  S
C493        C494   1.426       .  A
C494        C495   1.418       .  A
C494        C501   1.518       .  S
C495        C496   1.405       .  A
C495        H500   1.080       .  S
C496        N839   1.456       .  S
C496        C497   1.417       .  A
C497       C1197   1.516       .  S
C498       C1196   1.516       .  S
C498        F502   1.380       .  S
C498        F503   1.383       .  S
C498        F504   1.385   1_554  S
C501        F505   1.382       .  S
C501        F506   1.383       .  S
C501        F507   1.385       .  S
C508        C509   1.414       .  A
C508        C513   1.408       .  A
C508        H515   1.083       .  S
C509       C1209   1.422       .  A
C510        C511   1.409       .  A
C510       C1208   1.415       .  A
C510        C517   1.516       .  S
C511       C1211   1.415       .  A
C511        H516   1.083       .  S
C512        C513   1.412       .  A
C512       C1210   1.408       .  A
C513        C514   1.516       .  S
C514        F518   1.385       .  S
C514        F519   1.382       .  S
C514        F520   1.378       .  S
C517        F521   1.382       .  S
C517        F522   1.378       .  S
C517        F523   1.385       .  S
C524        C525   1.405       .  A
C524        C529   1.400       .  A
C524        H531   1.064       .  S
C525        C526   1.422       .  A
C526        C527   1.407       .  A
C526       C1232   1.515       .  S
C527        C528   1.404       .  A
C527       H1231   1.082       .  S
C528        C529   1.417       .  A
C529        C530   1.517       .  S
C530        F534   1.384       .  S
C530        F535   1.383       .  S
C530        F536   1.381       .  S
H532       C1226   1.083       .  S
C533       C1225   1.514       .  S
C533        F537   1.382       .  S
C533        F538   1.383       .  S
C533        F539   1.384       .  S
C540        C541   1.406       .  A
C540        C545   1.400       .  A
C540        H547   1.084       .  S
C541        C542   1.427       .  A
C542        C543   1.419       .  A
C542        C549   1.515       .  S
C543        C544   1.403       .  A
C543       H1247   1.082       .  S
C544        C545   1.423       .  A
C545        C546   1.523       .  S
C546        F550   1.383       .  S
C546        F551   1.377       .  S
C546        F552   1.384       .  S
H548       C1242   1.082       .  S
C549        F553   1.383       .  S
C549        F554   1.378       .  S
C549       F1254   1.385       .  S
F555       C1248   1.385       .  S
C556        C557   1.396       .  A
C556        C561   1.398       .  A
C556        H563   1.075       .  S
C557        C558   1.416       .  A
C558        C559   1.406       .  A
C558        C565   1.517       .  S
C559        C560   1.403       .  A
C559        H564   1.083       .  S
C560        C561   1.415       .  A
C561        C562   1.517       .  S
C562        F566   1.384       .  S
C562        F567   1.382       .  S
C562        F568   1.384       .  S
C565        F569   1.384       .  S
C565        F570   1.382       .  S
C565        F571   1.383       .  S
C572        C573   1.399       .  A
C572        C577   1.406       .  A
C572        H579   1.084       .  S
C573        C763   1.472       .  S
C573        C574   1.419       .  A
C574        C575   1.400   1_556  A
C574        C581   1.519       .  S
C575        C576   1.399       .  A
C575        H580   1.085       .  S
C576        C577   1.418   1_554  A
C577        C578   1.516       .  S
C578        F582   1.385       .  S
C578        F583   1.383       .  S
C578        F584   1.378   1_556  S
C581        F585   1.381       .  S
C581        F586   1.383   1_556  S
C581        F587   1.383       .  S
C588        C589   1.405       .  A
C588        C593   1.412       .  A
C588        H595   1.079       .  S
C589        C590   1.421       .  A
C590        C591   1.406       .  A
C590        C597   1.517       .  S
C591        C592   1.402       .  A
C591        H596   1.083       .  S
C592        C593   1.417       .  A
C593        C594   1.511       .  S
C594        F598   1.385       .  S
C594        F599   1.382       .  S
C594        F600   1.382       .  S
C597        F601   1.382       .  S
C597        F602   1.380       .  S
C597        F603   1.385       .  S
C604        C605   1.401       .  A
C604        C609   1.400       .  A
C604        H611   1.085       .  S
C605       C1305   1.416       .  A
C606        C607   1.404   1_556  A
C606       C1304   1.418       .  A
C606        C613   1.515       .  S
C607        C608   1.400       .  A
C607        H612   1.082       .  S
C608       C1308   1.422       .  A
C609       C1307   1.419       .  A
C609        C610   1.520       .  S
C610        F616   1.381       .  S
C610       F1313   1.384       .  S
C610       F1314   1.383       .  S
C613        F617   1.379       .  S
C613        F619   1.385       .  S
C613       F1317   1.382       .  S
F614       C1309   1.384       .  S
F615       C1309   1.383       .  S
F618       C1312   1.381       .  S
C620        C621   1.406   1_554  A
C620        C625   1.415       .  A
C620        H627   1.082       .  S
C621        C622   1.421       .  A
C622        C623   1.410   1_556  A
C622        C629   1.514       .  S
C623        C624   1.407       .  A
C623        H628   1.085       .  S
C624        C625   1.421       .  A
C625        C626   1.517       .  S
C626        F630   1.385       .  S
C626        F631   1.382   1_565  S
C626        F632   1.383       .  S
C629        F634   1.375       .  S
C629        F635   1.383       .  S
C629       F1332   1.382       .  S
F633       C1328   1.383       .  S
C636        C637   1.403       .  A
C636        C641   1.407       .  A
C636        H643   1.083       .  S
C637        C638   1.418       .  A
C638        C639   1.391       .  A
C638        C645   1.524       .  S
C639        C640   1.400       .  A
C639        H644   1.085       .  S
C640        C641   1.413       .  A
C641        C642   1.511   1_565  S
C642        F646   1.385       .  S
C642        F647   1.379       .  S
C642        F648   1.384       .  S
C645        F649   1.383       .  S
C645        F651   1.384       .  S
C645       F1349   1.380       .  S
F650       C1344   1.380       .  S
C652        C653   1.405       .  A
C652        C657   1.405       .  A
C652        H659   1.084       .  S
C653       C1353   1.407       .  A
C654        C655   1.404       .  A
C654       C1352   1.407       .  A
C654        C661   1.515       .  S
C655       C1355   1.408       .  A
C655        H660   1.083       .  S
C656        C657   1.410       .  A
C656       C1354   1.406       .  A
C657        C658   1.516       .  S
C658        F662   1.382       .  S
C658        F663   1.383       .  S
C658        F664   1.385       .  S
C661        F665   1.385   1_556  S
C661        F666   1.383       .  S
C661        F667   1.383   1_556  S
C668        C669   1.400       .  A
C668        C673   1.402       .  A
C668        H675   1.081       .  S
C669        C670   1.409       .  A
C670        C671   1.398       .  A
C670        C677   1.517   1_554  S
C671        C672   1.407       .  A
C671        H676   1.085       .  S
C672        C673   1.419       .  A
C673        C674   1.520       .  S
C674        F678   1.385       .  S
C674        F679   1.383       .  S
C674        F680   1.383       .  S
C677        F681   1.383       .  S
C677        F682   1.383   1_556  S
C677        F683   1.380       .  S
C684        C685   1.402       .  A
C684        C689   1.410       .  A
C684        H691   1.082       .  S
C685        C686   1.416       .  A
C686        C687   1.411       .  A
C686        C693   1.512       .  S
C687        C688   1.410       .  A
C687        H692   1.084       .  S
C688        C689   1.429       .  A
C689        C690   1.522       .  S
C690        F694   1.385       .  S
C690        F695   1.383       .  S
C690        F696   1.384       .  S
C693        F697   1.383       .  S
C693        F698   1.378       .  S
C693        F699   1.383       .  S
N700        C701   1.360       .  A
N700       C1384   1.449       .  S
C701       C1355   1.470       .  S
C702        C703   1.366       .  A
C702        H705   1.083       .  S
C703        C704   1.376       .  A
C703        H706   1.082       .  S
C704       C1368   1.465       .  S
N707       C1320   1.451       .  S
C708       C1304   1.475       .  S
C708        C709   1.379       .  A
C709        C710   1.365       .  A
C709        H712   1.082       .  S
C710        C711   1.382       .  A
C710        H713   1.082       .  S
C711       C1336   1.475       .  S
N714        N715   1.322       .  A
N714        N720   1.318       .  A
N714       Mn743   2.211       .  S
N715        C722   1.354       .  A
N716        N718   1.313       .  A
N716        N717   1.319       .  A
N716       Mn732   2.205       .  S
N717        C723   1.356       .  A
N718        N719   1.325       .  A
N718       Mn743   2.207       .  S
N719        C723   1.356       .  A
N720        N721   1.316       .  A
N720       Mn732   2.197       .  S
N721        C722   1.351       .  A
C722       C1259   1.471       .  S
C723       C1240   1.502       .  S
N724        N730   1.314       .  A
N724        N725   1.312       .  A
N724       Mn754   2.180       .  S
N725        C733   1.350       .  A
N726        N727   1.327       .  A
N726        N728   1.312       .  A
N726       Mn732   2.222   1_565  S
N727        C734   1.361       .  A
N728        N729   1.319       .  A
N728       Mn754   2.194       .  S
N729        C734   1.350       .  A
N730        N731   1.322       .  A
N730       Mn732   2.201   1_565  S
N731        C733   1.356       .  A
Mn732      Cl756   2.560       .  S
C733       C1371   1.481       .  S
C734       C1387   1.504       .  S
N735        N736   1.321       .  A
N735        N741   1.319       .  A
N735       Mn743   2.209       .  S
N736        C744   1.353       .  A
N737        N739   1.314       .  A
N737        N738   1.324       .  A
N737       Mn755   2.211       .  S
N738        C745   1.356       .  A
N739        N740   1.320       .  A
N739       Mn743   2.207       .  S
N740        C745   1.355       .  A
N741        N742   1.322       .  A
N741       Mn755   2.228       .  S
N742        C744   1.357       .  A
Mn743      Cl756   2.543       .  S
C744       C1275   1.481       .  S
C745       C1291   1.500       .  S
N746        N747   1.313       .  A
N746        N752   1.317   1_565  A
N746       Mn754   2.180       .  S
N747        C757   1.348       .  A
N748        N749   1.325       .  A
N748        N750   1.313   1_545  A
N748       Mn755   2.214       .  S
N749        C758   1.357   1_545  A
N750        N751   1.319       .  A
N750       Mn754   2.195       .  S
N751        C758   1.352       .  A
N752        N753   1.325       .  A
N752       Mn755   2.230       .  S
N753        C757   1.360   1_545  A
Mn754      Cl756   2.522   1_565  S
Mn755      Cl756   2.569       .  S
C757       C1339   1.479       .  S
C758       C1323   1.493       .  S
N759        C763   1.354       .  A
N759        C760   1.362       .  A
N759       C1288   1.447       .  S
C760       C1227   1.487       .  S
C761        C762   1.368       .  A
C761        H764   1.081       .  S
C762        H765   1.082       .  S
N766        C767   1.368       .  A
N766       C1243   1.444       .  S
C767       C1211   1.507       .  S
C768        C769   1.370       .  A
C768        H771   1.083       .  S
C769        C770   1.375       .  A
C769        H772   1.082       .  S
C770       C1256   1.472       .  S
N773        N774   1.322       .  A
N773        N779   1.316       .  A
N773       Mn802   2.208       .  S
N774        C781   1.356       .  A
N775        N777   1.313       .  A
N775        N776   1.318       .  A
N775       Mn791   2.182       .  S
N776        C782   1.353       .  A
N777        N778   1.317       .  A
N777       Mn802   2.192       .  S
N778        C782   1.351       .  A
N779        N780   1.323       .  A
N779       Mn791   2.223       .  S
N780        C781   1.356       .  A
C781       C1192   1.501       .  S
C782       C1179   1.473       .  S
N783        N789   1.317       .  A
N783        N784   1.332       .  A
N783       Mn813   2.260       .  S
N784        C792   1.365       .  A
N785        N786   1.315       .  A
N785        N787   1.315       .  A
N785       Mn791   2.186       .  S
N786        C793   1.351       .  A
N787        N788   1.321       .  A
N787       Mn813   2.207       .  S
N788        C793   1.355       .  A
N789        N790   1.323       .  A
N789       Mn791   2.220       .  S
N790        C792   1.355       .  A
Mn791      Cl815   2.542       .  S
C792       C1144   1.519       .  S
C793       C1160   1.476   1_556  S
N794        N795   1.321       .  A
N794        N800   1.312       .  A
N794       Mn802   2.201   1_655  S
N795        C803   1.356       .  A
N796        N798   1.315       .  A
N796        N797   1.322       .  A
N796       Mn814   2.221       .  S
N797        C804   1.358       .  A
N798        N799   1.324       .  A
N798       Mn802   2.216   1_655  S
N799        C804   1.356       .  A
N800        N801   1.316       .  A
N800       Mn814   2.180       .  S
N801        C803   1.350       .  A
Mn802      Cl815   2.555       .  S
C803       C1080   1.481       .  S
C804       C1096   1.502       .  S
N805        N806   1.322       .  A
N805        N811   1.317       .  A
N805       Mn813   2.240   1_655  S
N806        C816   1.358       .  A
N807        N808   1.320       .  A
N807        N809   1.316       .  A
N807       Mn814   2.200       .  S
N808        C817   1.351       .  A
N809        N810   1.321       .  A
N809       Mn813   2.209   1_655  S
N810        C817   1.355       .  A
N811        N812   1.320       .  A
N811       Mn814   2.184       .  S
N812        C816   1.352       .  A
Mn813      Cl815   2.559       .  S
Mn814      Cl815   2.546   1_655  S
C816       C1128   1.496   1_556  S
C817       C1112   1.480       .  S
N818        C822   1.366       .  A
N818        C819   1.367       .  A
C819       C1067   1.515       .  S
C819        C820   1.384       .  A
C820        C821   1.385       .  A
C820        H823   1.082       .  S
C821        C822   1.386       .  A
C821        H824   1.082       .  S
C822       C1147   1.514       .  S
N825        C829   1.359       .  A
N825        C826   1.370       .  A
C826       C1208   1.503       .  S
C826        C827   1.391       .  A
C827        C828   1.365       .  A
C827        H830   1.083       .  S
C828        C829   1.373       .  A
C828        H831   1.082       .  S
C829       C1115   1.474       .  S
N832        C836   1.355       .  A
N832        C833   1.367       .  A
C833        C834   1.387       .  A
C834        C835   1.366       .  A
C834        H837   1.083       .  S
C835        C836   1.376       .  A
C835        H838   1.082       .  S
C836       C1083   1.467       .  S
N839        C843   1.354       .  A
N839        C840   1.361       .  A
C840       C1307   1.468       .  S
C840        C841   1.384       .  A
C841        C842   1.366       .  A
C841        H844   1.083       .  S
C842        C843   1.378       .  A
C842        H845   1.082       .  S
C843       C1176   1.463       .  S
N846        N847   1.323       .  A
N846        N852   1.316       .  A
N846       Mn875   2.225       .  S
N847        C854   1.356       .  A
N848        N850   1.315       .  A
N848        N849   1.321       .  A
N848       Mn864   2.206       .  S
N849        C855   1.353       .  A
N850        N851   1.318       .  A
N850       Mn875   2.194       .  S
N851        C855   1.354       .  A
N852        N853   1.321       .  A
N852       Mn864   2.204       .  S
N853        C854   1.356       .  A
C854       C1035   1.498       .  S
C855       C1019   1.478       .  S
N856        N862   1.313       .  A
N856        N857   1.318       .  A
N856       Mn886   2.194       .  S
N857        C865   1.352       .  A
N858        N859   1.324       .  A
N858        N860   1.318       .  A
N858       Mn864   2.222       .  S
N859        C866   1.355       .  A
N860        N861   1.325       .  A
N860       Mn886   2.231       .  S
N861        C866   1.359       .  A
N862        N863   1.321       .  A
N862       Mn864   2.198       .  S
N863        C865   1.354       .  A
Mn864      Cl888   2.551       .  S
C865        C984   1.482       .  S
C866       C1000   1.501       .  S
N867        N868   1.328       .  A
N867        N873   1.315       .  A
N867       Mn875   2.239       .  S
N868        C876   1.361       .  A
N869        N871   1.314       .  A
N869        N870   1.318       .  A
N869       Mn887   2.191       .  S
N870        C877   1.354       .  A
N871        N872   1.317       .  A
N871       Mn875   2.193       .  S
N872        C877   1.351       .  A
N873        N874   1.324       .  A
N873       Mn887   2.217       .  S
N874        C876   1.357       .  A
Mn875      Cl888   2.550       .  S
C876        C923   1.512       .  S
C877        C939   1.480       .  S
N878        N879   1.323       .  A
N878        N884   1.316       .  A
N878       Mn886   2.223       .  S
N879        C889   1.360       .  A
N880        N881   1.319       .  A
N880        N882   1.314       .  A
N880       Mn887   2.190       .  S
N881        C890   1.353       .  A
N882        N883   1.317       .  A
N882       Mn886   2.197       .  S
N883        C890   1.353       .  A
N884        N885   1.322       .  A
N884       Mn887   2.210       .  S
N885        C889   1.352       .  A
Mn886      Cl888   2.549       .  S
Mn887      Cl888   2.552       .  S
C889        C968   1.500       .  S
C890        C955   1.483       .  S
N891        C895   1.354       .  A
N891        C892   1.363       .  A
N891       C1016   1.440       .  S
C892       C1224   1.502       .  S
C892        C893   1.389       .  A
C894        H897   1.082       .  S
N898        C902   1.365       .  A
N898        C899   1.365       .  A
C899       C1064   1.513       .  S
C899        C900   1.385       .  A
C900        C901   1.383       .  A
C900        H903   1.082       .  S
C901        C902   1.385       .  A
C901        H904   1.082       .  S
C902        C920   1.507       .  S
N905        C909   1.360       .  A
N905        C906   1.369       .  A
C906       C1051   1.488       .  S
C906        C907   1.385       .  A
C907        C908   1.366       .  A
C907        H910   1.082       .  S
C908        C909   1.378       .  A
C908        H911   1.083       .  S
C909        C987   1.476       .  S
N912        C916   1.353       .  A
N912        C913   1.355       .  A
C913       C1352   1.469       .  S
C913        C914   1.384       .  A
C914        C915   1.373       .  A
C914        H917   1.083       .  S
C915        C916   1.381       .  A
C915        H918   1.082       .  S
C916        C952   1.477       .  S
C919        C920   1.408       .  A
C919        C924   1.422       .  A
C919        H926   1.083       .  S
C920        C921   1.426       .  A
C921        C922   1.413       .  A
C921        C928   1.523       .  S
C922        C923   1.407       .  A
C922        H927   1.084       .  S
C923        C924   1.423       .  A
C924        C925   1.517       .  S
C925        F929   1.384       .  S
C925        F930   1.383       .  S
C925        F931   1.383       .  S
C928        F932   1.384       .  S
C928        F933   1.379       .  S
C928        F934   1.384       .  S
C935        C936   1.397       .  A
C935        C940   1.401       .  A
C935        H942   1.081       .  S
C936        C937   1.412       .  A
C937        C938   1.401       .  A
C938        C939   1.406       .  A
C938        H943   1.084       .  S
C939        C940   1.423       .  A
C940        C941   1.520       .  S
C941        F945   1.385       .  S
C941        F946   1.383       .  S
C941        F947   1.381       .  S
C944        F948   1.377       .  S
C944        F949   1.383       .  S
C944        F950   1.384       .  S
C951        C952   1.405       .  A
C951        C956   1.403       .  A
C951        H958   1.079       .  S
C952        C953   1.412       .  A
C953        C954   1.400       .  A
C953        C960   1.517       .  S
C954        C955   1.407       .  A
C954        H959   1.084       .  S
C955        C956   1.420       .  A
C956        C957   1.521       .  S
C957        F961   1.386       .  S
C957        F962   1.384       .  S
C957        F963   1.382       .  S
C960        F964   1.381       .  S
C960        F965   1.383       .  S
C960        F966   1.383       .  S
C967        C968   1.405       .  A
C967        C972   1.403       .  A
C967        H974   1.084       .  S
C968        C969   1.428       .  A
C969        C970   1.416       .  A
C969        C976   1.519       .  S
C970        C971   1.401       .  A
C971        C972   1.416       .  A
C972        C973   1.517       .  S
C973        F977   1.384       .  S
C973        F978   1.381       .  S
C976        F980   1.382       .  S
C976        F981   1.383       .  S
C976        F982   1.385       .  S
C983        C984   1.408       .  A
C983        C988   1.406       .  A
C983        H990   1.083       .  S
C984        C985   1.420       .  A
C985        C986   1.405       .  A
C985        C992   1.520       .  S
C986        C987   1.402       .  A
C986        H991   1.084       .  S
C987        C988   1.408       .  A
C988        C989   1.515       .  S
C989        F993   1.384       .  S
C989        F994   1.383       .  S
C989        F995   1.381       .  S
C992        F996   1.384       .  S
C992        F997   1.381       .  S
C992        F998   1.385       .  S
C999       C1000   1.405       .  A
C999       H1006   1.083       .  S
C1000      C1001   1.421       .  A
C1001      C1002   1.416       .  A
C1001      C1008   1.518       .  S
C1002      C1003   1.406       .  A
C1002      H1007   1.081       .  S
C1004      C1005   1.516       .  S
C1005      F1009   1.385       .  S
C1005      F1010   1.382       .  S
C1005      F1011   1.381       .  S
C1008      F1012   1.384       .  S
C1008      F1013   1.382       .  S
C1008      F1014   1.385       .  S
C1015      C1016   1.403       .  A
C1015      C1020   1.408       .  A
C1015      H1022   1.083       .  S
C1016      C1017   1.414       .  A
C1017      C1018   1.400       .  A
C1017      C1024   1.517       .  S
C1018      C1019   1.401       .  A
C1018      H1023   1.083       .  S
C1019      C1020   1.418       .  A
C1020      C1021   1.517       .  S
C1021      F1025   1.385       .  S
C1021      F1026   1.383       .  S
C1021      F1027   1.381       .  S
C1024      F1028   1.383       .  S
C1024      F1029   1.380       .  S
C1024      F1030   1.385       .  S
C1031      C1032   1.399       .  A
C1031      C1036   1.412       .  A
C1032      C1033   1.417       .  A
C1033      C1034   1.406       .  A
C1033      C1040   1.524       .  S
C1034      C1035   1.407       .  A
C1034      H1039   1.082       .  S
C1035      C1036   1.425       .  A
C1036      C1037   1.516       .  S
C1037      F1042   1.383       .  S
C1037      F1043   1.382       .  S
C1040      F1044   1.382       .  S
C1040      F1045   1.382       .  S
C1040      F1046   1.384       .  S
C1047      C1052   1.405       .  A
C1047      H1054   1.084       .  S
C1048      C1049   1.423       .  A
C1049      C1050   1.406   1_554  A
C1049      C1056   1.518       .  S
C1050      C1051   1.402       .  A
C1050      H1055   1.084       .  S
C1052      C1053   1.520       .  S
C1053      F1057   1.384       .  S
C1053      F1058   1.381       .  S
C1053      F1059   1.383       .  S
C1056      F1060   1.384   1_554  S
C1056      F1061   1.383       .  S
C1056      F1062   1.380       .  S
C1063      C1068   1.420       .  A
C1063      H1070   1.082       .  S
C1064      C1065   1.424       .  A
C1065      C1066   1.420   1_556  A
C1065      C1072   1.519       .  S
C1066      H1071   1.084       .  S
C1067      C1068   1.424       .  A
C1068      C1069   1.517       .  S
C1069      F1073   1.381       .  S
C1069      F1074   1.380       .  S
C1069      F1075   1.385       .  S
C1072      F1076   1.383       .  S
C1072      F1077   1.382       .  S
C1072      F1078   1.385   1_556  S
C1079      C1080   1.403       .  A
C1079      C1084   1.400       .  A
C1079      H1086   1.084       .  S
C1080      C1081   1.423       .  A
C1081      C1082   1.405       .  A
C1081      C1088   1.519       .  S
C1082      C1083   1.397       .  A
C1082      H1087   1.084       .  S
C1083      C1084   1.417       .  A
C1084      C1085   1.520       .  S
C1085      F1089   1.384       .  S
C1085      F1091   1.380       .  S
C1088      F1092   1.383       .  S
C1088      F1093   1.384       .  S
C1088      F1094   1.385       .  S
C1095      C1096   1.406       .  A
C1095      C1100   1.410   1_556  A
C1095      H1102   1.082       .  S
C1096      C1097   1.424   1_556  A
C1097      C1098   1.416       .  A
C1097      C1104   1.518       .  S
C1098      C1099   1.405       .  A
C1099      C1100   1.419       .  A
C1100      C1101   1.515       .  S
C1101      F1105   1.380   1_554  S
C1101      F1106   1.383       .  S
C1101      F1107   1.385   1_554  S
C1104      F1108   1.382   1_554  S
C1104      F1109   1.384       .  S
C1111      C1112   1.402       .  A
C1111      C1116   1.404       .  A
C1111      H1118   1.085       .  S
C1112      C1113   1.416       .  A
C1113      C1114   1.403       .  A
C1113      C1120   1.510       .  S
C1114      C1115   1.398       .  A
C1114      H1119   1.081       .  S
C1115      C1116   1.418       .  A
C1116      C1117   1.520       .  S
C1117      F1121   1.383       .  S
C1117      F1122   1.382       .  S
C1117      F1123   1.384       .  S
C1120      F1124   1.377   1_655  S
C1120      F1125   1.384       .  S
C1120      F1126   1.385   1_655  S
C1127      C1128   1.414       .  A
C1127      C1132   1.413       .  A
C1127      H1134   1.083       .  S
C1128      C1129   1.422       .  A
C1129      C1130   1.403       .  A
C1129      C1136   1.520   1_554  S
C1130      C1131   1.403       .  A
C1130      H1135   1.082       .  S
C1131      C1132   1.410       .  A
C1132      C1133   1.515       .  S
C1133      F1137   1.384       .  S
C1133      F1139   1.383       .  S
C1136      F1140   1.381   1_656  S
C1136      F1141   1.384       .  S
C1136      F1142   1.385   1_556  S
C1143      C1144   1.407       .  A
C1143      C1148   1.416       .  A
C1143      H1150   1.084       .  S
C1144      C1145   1.422       .  A
C1145      C1146   1.420       .  A
C1145      C1152   1.508       .  S
C1146      C1147   1.407       .  A
C1146      H1151   1.082       .  S
C1147      C1148   1.428       .  A
C1148      C1149   1.521       .  S
C1149      F1153   1.384       .  S
C1149      F1154   1.378       .  S
C1149      F1155   1.383       .  S
C1152      F1156   1.384       .  S
C1152      F1157   1.382       .  S
C1152      F1158   1.385       .  S
C1159      C1160   1.402       .  A
C1159      C1164   1.397       .  A
C1159      H1166   1.085   1_554  S
C1160      C1161   1.415       .  A
C1161      C1162   1.406       .  A
C1161      C1168   1.518       .  S
C1162      C1163   1.405       .  A
C1163      C1164   1.418       .  A
C1164      C1165   1.516       .  S
C1165      F1169   1.383       .  S
C1165      F1170   1.375       .  S
C1165      F1171   1.384       .  S
C1168      F1172   1.381       .  S
C1168      F1173   1.384       .  S
C1175      C1176   1.397       .  A
C1175      C1180   1.404       .  A
C1175      H1182   1.084       .  S
C1176      C1177   1.414       .  A
C1177      C1178   1.398       .  A
C1177      C1184   1.522       .  S
C1178      C1179   1.404       .  A
C1178      H1183   1.083       .  S
C1179      C1180   1.420       .  A
C1180      C1181   1.519       .  S
C1181      F1185   1.385       .  S
C1181      F1186   1.382       .  S
C1181      F1187   1.383       .  S
C1184      F1188   1.382       .  S
C1184      F1190   1.385       .  S
C1191      C1192   1.408       .  A
C1191      C1196   1.410   1_556  A
C1191      H1198   1.082       .  S
C1192      C1193   1.424   1_556  A
C1193      C1194   1.413       .  A
C1193      C1200   1.520       .  S
C1194      C1195   1.404       .  A
C1194      H1199   1.081       .  S
C1195      C1196   1.415       .  A
C1197      F1201   1.381       .  S
C1197      F1202   1.383       .  S
C1197      F1203   1.385       .  S
C1200      F1204   1.382   1_554  S
C1200      F1205   1.384       .  S
C1200      F1206   1.385       .  S
C1207      C1208   1.414       .  A
C1207      C1212   1.409       .  A
C1207      H1214   1.084       .  S
C1209      C1210   1.408       .  A
C1209      C1216   1.517   1_554  S
C1210      H1215   1.084   1_554  S
C1211      C1212   1.418       .  A
C1212      C1213   1.516       .  S
C1213      F1217   1.385       .  S
C1213      F1218   1.379       .  S
C1213      F1219   1.378       .  S
C1216      F1220   1.381       .  S
C1216      F1221   1.377       .  S
C1216      F1222   1.385       .  S
C1223      C1224   1.405       .  A
C1223      C1228   1.402       .  A
C1223      H1230   1.076       .  S
C1224      C1225   1.423       .  A
C1225      C1226   1.408       .  A
C1226      C1227   1.404       .  A
C1227      C1228   1.418       .  A
C1228      C1229   1.517       .  S
C1229      F1233   1.384       .  S
C1229      F1234   1.383       .  S
C1229      F1235   1.380       .  S
C1232      F1236   1.382       .  S
C1232      F1237   1.383       .  S
C1232      F1238   1.384       .  S
C1239      C1240   1.403       .  A
C1239      C1244   1.400       .  A
C1239      H1246   1.084       .  S
C1240      C1241   1.427       .  A
C1241      C1242   1.418       .  A
C1241      C1248   1.517       .  S
C1242      C1243   1.403       .  A
C1243      C1244   1.425       .  A
C1244      C1245   1.523       .  S
C1245      F1249   1.383       .  S
C1245      F1250   1.378       .  S
C1245      F1251   1.384       .  S
C1248      F1252   1.383       .  S
C1248      F1253   1.380       .  S
C1255      C1256   1.396       .  A
C1255      C1260   1.399       .  A
C1255      H1262   1.077       .  S
C1256      C1257   1.416       .  A
C1257      C1258   1.406       .  A
C1257      C1264   1.519       .  S
C1258      C1259   1.403       .  A
C1258      H1263   1.083       .  S
C1259      C1260   1.416       .  A
C1260      C1261   1.518       .  S
C1261      F1265   1.384       .  S
C1261      F1266   1.383       .  S
C1261      F1267   1.383       .  S
C1264      F1268   1.382       .  S
C1264      F1269   1.383       .  S
C1264      F1270   1.384       .  S
C1271      C1272   1.398       .  A
C1271      C1276   1.407       .  A
C1271      H1278   1.085       .  S
C1272      C1273   1.419       .  A
C1273      C1274   1.404       .  A
C1273      C1280   1.522       .  S
C1274      C1275   1.401       .  A
C1274      H1279   1.083       .  S
C1275      C1276   1.421       .  A
C1276      C1277   1.516       .  S
C1277      F1281   1.384       .  S
C1277      F1282   1.382       .  S
C1277      F1283   1.381       .  S
C1280      F1284   1.381       .  S
C1280      F1285   1.382       .  S
C1280      F1286   1.384       .  S
C1287      C1288   1.402       .  A
C1287      C1292   1.413       .  A
C1287      H1294   1.082       .  S
C1288      C1289   1.417       .  A
C1289      C1290   1.406       .  A
C1289      C1296   1.515       .  S
C1290      C1291   1.404       .  A
C1290      H1295   1.082       .  S
C1291      C1292   1.424       .  A
C1292      C1293   1.513       .  S
C1293      F1297   1.385       .  S
C1293      F1298   1.382       .  S
C1293      F1299   1.383       .  S
C1296      F1300   1.383       .  S
C1296      F1301   1.380       .  S
C1296      F1302   1.385       .  S
C1303      C1304   1.399   1_554  A
C1303      C1308   1.403       .  A
C1303      H1310   1.085   1_554  S
C1305      C1306   1.403       .  A
C1305      C1312   1.514       .  S
C1306      C1307   1.401       .  A
C1306      H1311   1.083       .  S
C1308      C1309   1.520       .  S
C1309      F1315   1.382       .  S
C1312      F1316   1.380       .  S
C1312      F1318   1.385       .  S
C1319      C1320   1.406       .  A
C1319      C1324   1.415       .  A
C1319      H1326   1.082       .  S
C1320      C1321   1.421       .  A
C1321      C1322   1.404       .  A
C1321      C1328   1.514       .  S
C1322      C1323   1.402       .  A
C1322      H1327   1.085       .  S
C1323      C1324   1.421       .  A
C1324      C1325   1.517       .  S
C1325      F1329   1.385       .  S
C1325      F1330   1.383   1_565  S
C1325      F1331   1.383       .  S
C1328      F1333   1.374       .  S
C1328      F1334   1.383       .  S
C1335      C1336   1.403       .  A
C1335      C1340   1.410       .  A
C1335      H1342   1.083       .  S
C1336      C1337   1.421       .  A
C1337      C1338   1.396       .  A
C1337      C1344   1.524       .  S
C1338      C1339   1.400       .  A
C1338      H1343   1.085       .  S
C1339      C1340   1.415       .  A
C1340      C1341   1.510   1_565  S
C1341      F1345   1.384       .  S
C1341      F1346   1.381       .  S
C1341      F1347   1.384       .  S
C1344      F1348   1.383       .  S
C1344      F1350   1.385       .  S
C1351      C1352   1.403       .  A
C1351      C1356   1.401       .  A
C1351      H1358   1.085       .  S
C1353      C1354   1.403       .  A
C1353      C1360   1.515       .  S
C1354      H1359   1.083       .  S
C1355      C1356   1.414       .  A
C1356      C1357   1.517       .  S
C1357      F1361   1.380       .  S
C1357      F1362   1.383       .  S
C1357      F1363   1.383       .  S
C1360      F1364   1.385       .  S
C1360      F1365   1.382       .  S
C1360      F1366   1.382       .  S
C1367      C1368   1.402       .  A
C1367      C1372   1.406       .  A
C1367      H1374   1.081       .  S
C1368      C1369   1.408       .  A
C1369      C1370   1.395       .  A
C1369      C1376   1.517       .  S
C1370      C1371   1.407       .  A
C1370      H1375   1.085       .  S
C1371      C1372   1.420       .  A
C1372      C1373   1.519       .  S
C1373      F1377   1.385       .  S
C1373      F1378   1.383       .  S
C1373      F1379   1.383   1_565  S
C1376      F1380   1.383       .  S
C1376      F1381   1.380       .  S
C1376      F1382   1.382       .  S
C1383      C1384   1.401       .  A
C1383      C1388   1.409       .  A
C1383      H1390   1.081       .  S
C1384      C1385   1.417       .  A
C1385      C1386   1.412       .  A
C1385      C1392   1.511       .  S
C1386      C1387   1.408       .  A
C1386      H1391   1.084       .  S
C1387      C1388   1.429       .  A
C1388      C1389   1.522       .  S
C1389      F1393   1.385       .  S
C1389      F1394   1.383       .  S
C1389      F1395   1.383       .  S
C1392      F1396   1.383       .  S
C1392      F1397   1.377       .  S
C1392      F1398   1.383       .  S
