geometry optimzed in LAMMPS
_audit_creation_date              2020-12-01 
_audit_creation_method            'lammps2cif' 
_symmetry_space_group_name_H-M    'P1' 
_symmetry_Int_Tables_number       1 
_symmetry_cell_setting            triclinic 
loop_ 
_symmetry_equiv_pos_as_xyz 
  x,y,z 
_cell_length_a                    36.40409534 
_cell_length_b                    37.50878924298476 
_cell_length_c                    37.946070802180884 
_cell_angle_alpha                 89.01903492680535 
_cell_angle_beta                  89.38263867229098 
_cell_angle_gamma                 89.10538361987467 
loop_ 
_atom_site_label 
_atom_site_type_symbol 
_atom_site_fract_x 
_atom_site_fract_y 
_atom_site_fract_z 
_atom_site_charge 
C1          C  0.41390225  0.43117038  0.08338723     0.41900
N2          N  0.45430022  0.46872413  0.06510968     0.00800
C3          C  0.45571994  0.07390113  0.41327826    -0.07100
H4          H  0.45811774  0.44068211  0.38946967     0.06300
C5          C  0.08154332  0.42928199  0.45103603    -0.07400
Co6        Co  0.43021128  0.51037461  0.50132217     0.74200
N7          N  0.45310323  0.47060464  0.43741702    -0.26600
Co8        Co  0.99772605  0.50491287  0.43607366     0.74100
C9          C  0.06709465  0.41679872  0.41753762     0.42000
N10         N  0.06075222  0.45719755  0.03950399     0.00400
N11         N  0.03449409  0.46148070  0.43543543     0.00500
N12         N  0.40804400  0.07393592  0.45178720    -0.47500
H13         H  0.37572441  0.44546433  0.03693131     0.06300
N14         N  0.42763814  0.47180019  0.46249020     0.00800
N15         N  0.04295560  0.03980084  0.43811417     0.00500
C16         C  0.08506889  0.07751978  0.42369838     0.42100
N17         N  0.03601858  0.46065625  0.06504367    -0.26100
C18         C  0.41505588  0.07893768  0.04430237    -0.07000
N19         N  0.44677319  0.44534601  0.09062586    -0.47200
N20         N  0.05178776  0.06481786  0.41476572    -0.47400
C21         C  0.43139313  0.09516107  0.07516865     0.41900
N22         N  0.43325630  0.04930319  0.46047995     0.00800
N23         N  0.04305117  0.03743950  0.06352035    -0.26100
N24         N  0.42817733  0.47132168  0.04125400    -0.26600
N25         N  0.06933293  0.03356274  0.03959095     0.00400
H26         H  0.03776169  0.07002851  0.10968671     0.06300
H27         H  0.12122773  0.05723956  0.47015668     0.06300
N28         N  0.46064648  0.04805933  0.43751870    -0.23100
N29         N  0.05967273  0.45704576  0.46001355    -0.26300
N30         N  0.46149422  0.04703085  0.06227193     0.00800
C31         C  0.40877075  0.43247960  0.42692734     0.42200
C32         C  0.04368809  0.43647720  0.09055939    -0.07500
N33         N  0.06865210  0.03480780  0.46190247    -0.26300
H34         H  0.10616840  0.42074744  0.46468125     0.06300
N35         N  0.40024412  0.44976749  0.45692884    -0.47500
H36         H  0.02979918  0.43431447  0.11582624     0.06300
C37         C  0.08875621  0.07391896  0.07366691     0.42000
C38         C  0.40152231  0.44826598  0.05040117    -0.07000
Co39       Co  0.49863944  0.00375935  0.06433226     0.73800
N40         N  0.08563041  0.43195357  0.04630154    -0.47200
C41         C  0.42007591  0.09045253  0.42179152     0.42300
N42         N  0.45977231  0.07356814  0.08469747    -0.47200
Co43       Co  0.06541671  0.99509742  0.00056041     0.73900
C44         C  0.09626826  0.05716921  0.45519834    -0.07500
C45         C  0.44345138  0.44653178  0.41367502    -0.07100
N46         N  0.43541752  0.04939155  0.03843555    -0.26600
N47         N  0.03851573  0.43863485  0.40933210    -0.47400
H48         H  0.47346602  0.07815156  0.39065268     0.06300
C49         C  0.05282948  0.06247762  0.08618644    -0.07500
Cl50       Cl  0.99817843  0.00335074  0.00116685    -0.50500
C51         C  0.07642288  0.41747081  0.07783519     0.42000
H52         H  0.39115309  0.08731161  0.02944726     0.06200
N53         N  0.09769924  0.05441393  0.04516755    -0.47200
C54         C  0.16476109  0.16872536  0.31904344    -0.03100
C55         C  0.15760367  0.32878515  0.31969750    -0.03100
C56         C  0.16584053  0.31462109  0.16099434    -0.03100
C57         C  0.17895364  0.15589364  0.16960330    -0.03100
C58         C  0.33143458  0.18255528  0.32363581    -0.03100
C59         C  0.34190795  0.17956468  0.17265616    -0.03100
C60         C  0.32687844  0.34136026  0.18376212    -0.03100
C61         C  0.31924925  0.34351213  0.33654753    -0.03100
C62         C  0.33499648  0.35419091  0.22270426    -0.06700
C63         C  0.36533714  0.33994806  0.24197702    -0.17800
C64         C  0.36625261  0.34116392  0.27940878     0.10500
C65         C  0.33595292  0.35649870  0.29828753    -0.06600
C66         C  0.31756452  0.38354929  0.27769214    -0.17900
C67         C  0.31545915  0.38162110  0.24051002     0.10500
S68         S  0.41027929  0.33240591  0.29887658    -0.32800
S69         S  0.28929663  0.41534657  0.21692992    -0.32800
H70         H  0.27631621  0.43438785  0.24625711     0.28500
H71         H  0.40359409  0.35395009  0.32827814     0.28500
H72         H  0.38709838  0.32572912  0.22819555     0.19100
H73         H  0.29887595  0.40202465  0.29036779     0.19100
C74         C  0.34176065  0.22251155  0.17182611    -0.06700
C75         C  0.32175349  0.23860554  0.19909467    -0.17800
C76         C  0.32379985  0.27401270  0.20819325     0.10500
C77         C  0.33774928  0.29962483  0.18344185    -0.06600
C78         C  0.36286333  0.28436220  0.15891378    -0.17900
C79         C  0.36653931  0.24677265  0.15391606     0.10500
S80         S  0.31331143  0.28145676  0.25440891    -0.32800
S81         S  0.40754885  0.23259969  0.13040347    -0.32800
H82         H  0.41496575  0.26500867  0.11275269     0.28500
H83         H  0.32293878  0.24796698  0.26760109     0.28500
H84         H  0.30835945  0.22261321  0.21834129     0.19100
H85         H  0.38140483  0.30164590  0.14474008     0.19100
C86         C  0.34806248  0.17687770  0.28488007    -0.06700
C87         C  0.33850999  0.14465011  0.26779206    -0.17800
C88         C  0.34449376  0.13970427  0.23153864     0.10500
C89         C  0.35632295  0.16889018  0.21078480    -0.06600
C90         C  0.37841341  0.19262883  0.22865074    -0.17900
C91         C  0.37312840  0.19885092  0.26460702     0.10500
S92         S  0.33858791  0.09611077  0.21373146    -0.32800
S93         S  0.40086933  0.23459464  0.27956911    -0.32800
H94         H  0.39797804  0.25647315  0.24915024     0.28500
H95         H  0.37214239  0.09588325  0.19527449     0.28500
H96         H  0.32590160  0.12320828  0.28280131     0.19100
H97         H  0.39614815  0.20995388  0.21326501     0.19100
C98         C  0.33127071  0.22381544  0.33505868    -0.06700
C99         C  0.29738026  0.24219549  0.34025270    -0.17800
C100        C  0.29458072  0.27799579  0.34919407     0.10500
C101        C  0.32428000  0.30117644  0.34228704    -0.06600
C102        C  0.35863390  0.28299936  0.34503243    -0.17900
C103        C  0.36184575  0.24492230  0.34549730     0.10500
S104        S  0.26443719  0.28508578  0.38636731    -0.32800
S105        S  0.40365005  0.22676002  0.36463828    -0.32800
H106        H  0.40952658  0.19878193  0.34131082     0.28500
H107        H  0.26990415  0.25154519  0.40264131     0.28500
H108        H  0.27242766  0.22808148  0.34407247     0.19100
H109        H  0.38238676  0.29796657  0.35187619     0.19100
C110        C  0.22227073  0.14852713  0.17035274    -0.06700
C111        C  0.24460838  0.14236090  0.14019085    -0.17800
C112        C  0.28366777  0.14486853  0.14156916     0.10500
C113        C  0.30030844  0.16487782  0.16952276    -0.06600
C114        C  0.27595726  0.16883014  0.19885393    -0.17900
C115        C  0.24299528  0.15068182  0.20119478     0.10500
S116        S  0.30678767  0.11246847  0.11433650    -0.32800
S117        S  0.25112613  0.11004209  0.22632447    -0.32800
H118        H  0.26261561  0.12674494  0.25694424     0.28500
H119        H  0.33347567  0.10299431  0.13927771     0.28500
H120        H  0.23227738  0.13186018  0.11682238     0.19100
H121        H  0.28626972  0.17500030  0.22419198     0.19100
C122        C  0.17410878  0.19814629  0.16092865    -0.06700
C123        C  0.15438167  0.22029830  0.18422432    -0.17800
C124        C  0.13861682  0.25231879  0.17394631     0.10500
C125        C  0.15998453  0.27424245  0.15201402    -0.06600
C126        C  0.18103561  0.25521375  0.12651692    -0.17900
C127        C  0.18522462  0.21698809  0.12890357     0.10500
S128        S  0.09584146  0.26530799  0.19504206    -0.32800
S129        S  0.20450900  0.19476618  0.09112089    -0.32800
H130        H  0.21259407  0.22543881  0.07083821     0.28500
H131        H  0.08728429  0.29187308  0.16987887     0.28500
H132        H  0.15150817  0.21542056  0.21144450     0.19100
H133        H  0.19501389  0.27019683  0.10592856     0.19100
C134        C  0.20914324  0.32277399  0.15797570    -0.06700
C135        C  0.22612070  0.35188006  0.13958551    -0.17800
C136        C  0.26334536  0.36227813  0.14680801     0.10500
C137        C  0.28367537  0.34457828  0.17520438    -0.06600
C138        C  0.26106298  0.32327866  0.19586576    -0.17900
C139        C  0.23377307  0.30440445  0.18016692     0.10500
S140        S  0.27821935  0.40108641  0.12199809    -0.32800
S141        S  0.24257408  0.25737517  0.17677867    -0.32800
H142        H  0.25100571  0.25347684  0.21252407     0.28500
H143        H  0.30259361  0.41401259  0.14669435     0.28500
H144        H  0.21123498  0.36661516  0.11950888     0.19100
H145        H  0.26799773  0.31605967  0.22179311     0.19100
C146        C  0.15362886  0.32565997  0.27876275    -0.06700
C147        C  0.12724382  0.34390617  0.25764892    -0.17800
C148        C  0.12810848  0.34214451  0.21980338     0.10500
C149        C  0.15514530  0.31969311  0.20222098    -0.06600
C150        C  0.17353036  0.29621420  0.22539821    -0.17900
C151        C  0.17714257  0.30116018  0.26069994     0.10500
S152        S  0.08968940  0.36306897  0.19749494    -0.32800
S153        S  0.21966807  0.28170778  0.27716219    -0.32800
H154        H  0.20543913  0.25506174  0.29746950     0.28500
H155        H  0.08190075  0.38872973  0.22325920     0.28500
H156        H  0.10636269  0.35992983  0.27056236     0.19100
H157        H  0.18782888  0.27344302  0.21585216     0.19100
C158        C  0.19710878  0.34576226  0.32574571    -0.06700
C159        C  0.21188030  0.35172237  0.35973826    -0.17800
C160        C  0.25037164  0.35927578  0.36427015     0.10500
C161        C  0.27581960  0.35150922  0.33587705    -0.06600
C162        C  0.25849169  0.34614276  0.30380705    -0.17900
C163        C  0.22235240  0.35564092  0.29816436     0.10500
S164        S  0.26534870  0.37319466  0.40695252    -0.32800
S165        S  0.21546759  0.37279087  0.25343579    -0.32800
H166        H  0.18028886  0.38672416  0.25408524     0.28500
H167        H  0.23004790  0.37978187  0.42107203     0.28500
H168        H  0.19383513  0.35007480  0.38252045     0.19100
H169        H  0.27334281  0.33638721  0.28132898     0.19100
C170        C  0.15311642  0.15423622  0.28089509    -0.06700
C171        C  0.12900354  0.17161609  0.25631141    -0.17800
C172        C  0.12706552  0.16042295  0.22085444     0.10500
C173        C  0.15903255  0.14442812  0.20637508    -0.06600
C174        C  0.17159548  0.11769915  0.22986205    -0.17900
C175        C  0.16831434  0.12175233  0.26697576     0.10500
S176        S  0.08725752  0.17108643  0.19457310    -0.32800
S177        S  0.18312155  0.08453238  0.29400550    -0.32800
H178        H  0.15031372  0.08347909  0.31373542     0.28500
H179        H  0.06503448  0.18246117  0.22292943     0.28500
H180        H  0.11162005  0.19367983  0.26285729     0.19100
H181        H  0.18343529  0.09352349  0.21982484     0.19100
C182        C  0.28924476  0.17024936  0.32040027    -0.06700
C183        C  0.26789474  0.18818730  0.29455128    -0.17800
C184        C  0.22963436  0.18550704  0.29219344     0.10500
C185        C  0.20886664  0.16516694  0.31717700    -0.06600
C186        C  0.23087034  0.14042223  0.33693566    -0.17900
C187        C  0.27004750  0.14226009  0.33872884     0.10500
S188        S  0.21132481  0.20347493  0.25190649    -0.32800
S189        S  0.29343876  0.10472950  0.35941131    -0.32800
H190        H  0.26356145  0.09239665  0.37977522     0.28500
H191        H  0.17858926  0.21779371  0.26510102     0.28500
H192        H  0.28127323  0.20621225  0.27632047     0.19100
H193        H  0.21807819  0.11784147  0.34949008     0.19100
C194        C  0.15665980  0.20992093  0.32946909    -0.06700
C195        C  0.12515886  0.22912460  0.31826633    -0.17800
C196        C  0.12257485  0.26694826  0.31870321     0.10500
C197        C  0.15247664  0.28767757  0.33104943    -0.06600
C198        C  0.17656171  0.26850156  0.35314535    -0.17900
C199        C  0.17822645  0.23046629  0.35361653     0.10500
S200        S  0.08016143  0.28813095  0.30443392    -0.32800
S201        S  0.20126916  0.21181027  0.39138948    -0.32800
H202        H  0.23178921  0.19877837  0.37328047     0.28500
H203        H  0.05962558  0.25703170  0.30048131     0.28500
H204        H  0.10134676  0.21493371  0.31097197     0.19100
H205        H  0.19397551  0.28311538  0.37011366     0.19100
C206        C  0.14327336  0.14566951  0.34759416    -0.06700
C207        C  0.15923742  0.13646087  0.38045940    -0.17800
C208        C  0.14172621  0.11536253  0.40647360     0.10500
C209        C  0.10612066  0.10256036  0.40032433    -0.06600
C210        C  0.08868835  0.11380502  0.36952481    -0.17900
C211        C  0.10531942  0.13586987  0.34431168     0.10500
S212        S  0.16533038  0.10739850  0.44753268    -0.32800
S213        S  0.07440556  0.14940578  0.30957636    -0.32800
H214        H  0.04196181  0.15051807  0.33011143     0.28500
H215        H  0.20071265  0.11694692  0.43584816     0.28500
H216        H  0.18565740  0.14596405  0.38696197     0.19100
H217        H  0.06096907  0.10516910  0.36474526     0.19100
C218        C  0.10018180  0.39221976  0.09760364    -0.06700
C219        C  0.09698838  0.35615842  0.09077832    -0.17800
C220        C  0.11764450  0.32991713  0.10889102     0.10500
C221        C  0.14281242  0.34015518  0.13609988    -0.06600
C222        C  0.14622274  0.37730096  0.14145147    -0.17900
C223        C  0.12565233  0.40306332  0.12268363     0.10500
S224        S  0.10765035  0.28485540  0.09582838    -0.32800
S225        S  0.13213134  0.44925743  0.13319665    -0.32800
H226        H  0.12358560  0.46347143  0.09973359     0.28500
H227        H  0.09690750  0.29293946  0.06103469     0.28500
H228        H  0.07715884  0.34842173  0.07133426     0.19100
H229        H  0.16424645  0.38644280  0.16185212     0.19100
C230        C  0.36902612  0.16392886  0.14445276    -0.06700
C231        C  0.40185601  0.14647821  0.15579108    -0.17800
C232        C  0.42431384  0.12637807  0.13355998     0.10500
C233        C  0.41459593  0.12315439  0.09793976    -0.06600
C234        C  0.38641757  0.14558821  0.08471834    -0.17900
C235        C  0.36446927  0.16701744  0.10706771     0.10500
S236        S  0.46497428  0.10511749  0.15218522    -0.32800
S237        S  0.33121177  0.19603428  0.08505645    -0.32800
H238        H  0.31089319  0.20824342  0.11392859     0.28500
H239        H  0.45730989  0.11119113  0.18801126     0.28500
H240        H  0.41080950  0.14785579  0.18260099     0.19100
H241        H  0.38062185  0.14573954  0.05678232     0.19100
C242        C  0.15924936  0.13405757  0.14069678    -0.06700
C243        C  0.12979979  0.15053651  0.12187026    -0.17800
C244        C  0.10775036  0.13202780  0.09878865     0.10500
C245        C  0.11446244  0.09566771  0.09342124    -0.06600
C246        C  0.14369716  0.07868452  0.11068929    -0.17900
C247        C  0.16583833  0.09685497  0.13446248     0.10500
S248        S  0.07037730  0.15619334  0.07792244    -0.32800
S249        S  0.20116769  0.07057949  0.15633837    -0.32800
H250        H  0.19974355  0.04011608  0.13531843     0.28500
H251        H  0.06981200  0.13568122  0.04726178     0.28500
H252        H  0.12222989  0.17812745  0.12577588     0.19100
H253        H  0.14792706  0.05037617  0.10677314     0.19100
C254        C  0.33857442  0.36621863  0.36521698    -0.06700
C255        C  0.34198383  0.40324595  0.35801294    -0.17800
C256        C  0.36408385  0.42535415  0.37767477     0.10500
C257        C  0.38272314  0.41122421  0.40699467    -0.06600
C258        C  0.37672216  0.37594598  0.41736132    -0.17900
C259        C  0.35418619  0.35347587  0.39788363     0.10500
S260        S  0.36793331  0.47129199  0.36316475    -0.32800
S261        S  0.34296528  0.31147173  0.41916158    -0.32800
H262        H  0.35655081  0.31843821  0.45287352     0.28500
H263        H  0.37395516  0.48564970  0.39652396     0.28500
H264        H  0.32789849  0.41575769  0.33635814     0.19100
H265        H  0.38998544  0.36596803  0.44104179     0.19100
C266        C  0.35388635  0.15865732  0.35087133    -0.06700
C267        C  0.38108558  0.13416645  0.33852183    -0.17800
C268        C  0.39987209  0.11018976  0.36043093     0.10500
C269        C  0.39655017  0.11268755  0.39737999    -0.06600
C270        C  0.37056278  0.13723436  0.41081177    -0.17900
C271        C  0.34869586  0.15941564  0.38833249     0.10500
S272        S  0.42424121  0.07463517  0.33822608    -0.32800
S273        S  0.31351886  0.18713203  0.40824241    -0.32800
H274        H  0.32165223  0.17902186  0.44364844     0.28500
H275        H  0.41233608  0.04795409  0.36205251     0.28500
H276        H  0.38808670  0.13190435  0.31108141     0.19100
H277        H  0.36714000  0.13871677  0.43911440     0.19100
C278        C  0.12901609  0.35225670  0.34166260    -0.06700
C279        C  0.11201903  0.33699088  0.37245774    -0.17800
C280        C  0.09154200  0.35693652  0.39695316     0.10500
C281        C  0.08637936  0.39371053  0.39153701    -0.06600
C282        C  0.10173892  0.40952008  0.36137368    -0.17900
C283        C  0.12363524  0.39003197  0.33729820     0.10500
S284        S  0.07369932  0.33380830  0.43541361    -0.32800
S285        S  0.14742580  0.41622086  0.30465429    -0.32800
H286        H  0.12488657  0.44698760  0.30589432     0.28500
H287        H  0.04276464  0.35612581  0.44036581     0.28500
H288        H  0.11555394  0.30918556  0.37942567     0.19100
H289        H  0.09849039  0.43812048  0.35799118     0.19100
C290        C  0.35056051  0.36321544  0.15595525    -0.06700
C291        C  0.37307001  0.39115259  0.16788617    -0.17800
C292        C  0.39291637  0.41357204  0.14515723     0.10500
C293        C  0.39239746  0.40838613  0.10851536    -0.06600
C294        C  0.37135539  0.38056839  0.09576273    -0.17900
C295        C  0.35076211  0.35792874  0.11829752     0.10500
S296        S  0.41658589  0.44993109  0.16505415    -0.32800
S297        S  0.32533304  0.32449429  0.09487498    -0.32800
H298        H  0.30579320  0.30807384  0.12228699     0.28500
H299        H  0.40519319  0.47550913  0.13972622     0.28500
H300        H  0.37495820  0.39737216  0.19540795     0.19100
H301        H  0.37099343  0.37631601  0.06758467     0.19100
C302        C  0.41387099  0.43141038  0.58434179     0.41900
N303        N  0.45402306  0.46914248  0.56597948     0.00800
C304        C  0.45561269  0.07355983  0.91240352    -0.07100
H305        H  0.45915996  0.44056741  0.88882171     0.06300
C306        C  0.08205672  0.43095308  0.95041665    -0.07400
Co307      Co  0.43068962  0.51031100  0.00052746     0.74200
N308        N  0.45392708  0.47070448  0.93662850    -0.26600
Co309      Co  0.99779350  0.50603849  0.93643924     0.74100
C310        C  0.06730262  0.41862322  0.91700898     0.42000
N311        N  0.06007696  0.45681149  0.54001712     0.00400
N312        N  0.03487781  0.46312409  0.93526622     0.00500
N313        N  0.40804619  0.07369965  0.95105563    -0.47500
H314        H  0.37555412  0.44539863  0.53790113     0.06300
N315        N  0.42842374  0.47187111  0.96166364     0.00800
N316        N  0.04355999  0.03890779  0.93798721     0.00500
C317        C  0.08568918  0.07646085  0.92315262     0.42100
N318        N  0.03503262  0.46059634  0.56523164    -0.26100
C319        C  0.41519974  0.07878400  0.54512346    -0.07000
N320        N  0.44665259  0.44576847  0.59151793    -0.47200
N321        N  0.05235154  0.06373094  0.91439955    -0.47400
C322        C  0.43150497  0.09484543  0.57608103     0.41900
N323        N  0.43333073  0.04916562  0.95979841     0.00800
N324        N  0.04247656  0.03678570  0.56370960    -0.26100
N325        N  0.42785446  0.47157020  0.54215894    -0.26600
N326        N  0.06882233  0.03319448  0.53982359     0.00400
H327        H  0.03703342  0.06903028  0.61014391     0.06300
H328        H  0.12204398  0.05636625  0.96953744     0.06300
N329        N  0.46069979  0.04788766  0.93680158    -0.23100
N330        N  0.06021639  0.45862273  0.95965833    -0.26300
N331        N  0.46153257  0.04671192  0.56305145     0.00800
C332        C  0.40980013  0.43235004  0.92628091     0.42200
C333        C  0.04241277  0.43679039  0.59116103    -0.07500
N334        N  0.06932720  0.03407728  0.96170913    -0.26300
H335        H  0.10670553  0.42226585  0.96393258     0.06300
N336        N  0.40116744  0.44969307  0.95619182    -0.47500
H337        H  0.02831574  0.43508509  0.61635583     0.06300
C338        C  0.08822731  0.07326723  0.57437437     0.42000
C339        C  0.40132719  0.44839809  0.55136700    -0.07000
Co340      Co  0.49866137  0.00337840  0.56472484     0.73800
N341        N  0.08514501  0.43198496  0.54759913    -0.47200
C342        C  0.41995147  0.09008921  0.92096012     0.42300
N343        N  0.45979080  0.07312680  0.58564973    -0.47200
Co344      Co  0.06482165  0.99525237  0.50025898     0.73900
C345        C  0.09700298  0.05627220  0.95470111    -0.07500
C346        C  0.44441785  0.44649500  0.91296677    -0.07100
N347        N  0.43550712  0.04924290  0.53916505    -0.26600
N348        N  0.03867012  0.44041898  0.90904508    -0.47400
H349        H  0.47329475  0.07773118  0.88971813     0.06300
C350        C  0.05221972  0.06163502  0.58666534    -0.07500
Cl351      Cl  0.99751430  0.00350033  0.50056017    -0.50500
C352        C  0.07565684  0.41802790  0.57925800     0.42000
H353        H  0.39134473  0.08725362  0.53025120     0.06200
N354        N  0.09715726  0.05404331  0.54566314    -0.47200
C355        C  0.16438858  0.16949588  0.81938733    -0.03100
C356        C  0.15729050  0.32971748  0.82008026    -0.03100
C357        C  0.16576904  0.31503129  0.66149111    -0.03100
C358        C  0.17843849  0.15629507  0.66998678    -0.03100
C359        C  0.33128974  0.18313317  0.82371852    -0.03100
C360        C  0.34205516  0.17993542  0.67299334    -0.03100
C361        C  0.32687243  0.34145676  0.68436586    -0.03100
C362        C  0.31888917  0.34382585  0.83718961    -0.03100
C363        C  0.33473078  0.35430209  0.72335403    -0.06700
C364        C  0.36511405  0.34026519  0.74271644    -0.17800
C365        C  0.36598998  0.34166859  0.78013181     0.10500
C366        C  0.33553104  0.35683177  0.79888974    -0.06600
C367        C  0.31712300  0.38381501  0.77820742    -0.17900
C368        C  0.31508235  0.38174672  0.74102245     0.10500
S369        S  0.41020584  0.33390231  0.79960092    -0.32800
S370        S  0.28887855  0.41528871  0.71722376    -0.32800
H371        H  0.27781024  0.43572814  0.74630222     0.28500
H372        H  0.40317667  0.35549722  0.82889195     0.28500
H373        H  0.38701983  0.32617941  0.72901022     0.19100
H374        H  0.29839275  0.40231496  0.79080661     0.19100
C375        C  0.34203106  0.22285857  0.67233917    -0.06700
C376        C  0.32191528  0.23883188  0.69966037    -0.17800
C377        C  0.32381956  0.27424751  0.70876370     0.10500
C378        C  0.33794526  0.29983152  0.68416290    -0.06600
C379        C  0.36342297  0.28465543  0.65992058    -0.17900
C380        C  0.36692410  0.24711364  0.65463247     0.10500
S381        S  0.31303545  0.28166818  0.75492760    -0.32800
S382        S  0.40776048  0.23301983  0.63082431    -0.32800
H383        H  0.41411997  0.26518862  0.61232540     0.28500
H384        H  0.32399416  0.24857742  0.76815476     0.28500
H385        H  0.30870383  0.22291566  0.71886386     0.19100
H386        H  0.38224727  0.30193884  0.64611016     0.19100
C387        C  0.34784165  0.17751729  0.78498477    -0.06700
C388        C  0.33820150  0.14528501  0.76798787    -0.17800
C389        C  0.34433553  0.14012921  0.73182839     0.10500
C390        C  0.35644509  0.16918742  0.71107142    -0.06600
C391        C  0.37872869  0.19280924  0.72896103    -0.17900
C392        C  0.37342509  0.19908707  0.76491762     0.10500
S393        S  0.33747244  0.09658338  0.71418343    -0.32800
S394        S  0.40185668  0.23414655  0.78028728    -0.32800
H395        H  0.40014385  0.25603628  0.74979587     0.28500
H396        H  0.36818975  0.09737421  0.69172008     0.28500
H397        H  0.32541600  0.12396320  0.78300232     0.19100
H398        H  0.39666439  0.20996529  0.71360758     0.19100
C399        C  0.33117928  0.22428347  0.83544242    -0.06700
C400        C  0.29729157  0.24244532  0.84125848    -0.17800
C401        C  0.29441049  0.27823326  0.85017035     0.10500
C402        C  0.32396440  0.30153095  0.84287260    -0.06600
C403        C  0.35842688  0.28350393  0.84511112    -0.17900
C404        C  0.36176804  0.24546638  0.84561081     0.10500
S405        S  0.26432132  0.28518670  0.88744216    -0.32800
S406        S  0.40327569  0.22750324  0.86548930    -0.32800
H407        H  0.40951449  0.19924167  0.84260561     0.28500
H408        H  0.26955405  0.25150716  0.90353122     0.28500
H409        H  0.27254363  0.22809228  0.84557504     0.19100
H410        H  0.38217330  0.29854608  0.85178694     0.19100
C411        C  0.22190213  0.14938047  0.67069507    -0.06700
C412        C  0.24415953  0.14388212  0.64035097    -0.17800
C413        C  0.28326336  0.14613899  0.64163969     0.10500
C414        C  0.30024510  0.16555205  0.66980009    -0.06600
C415        C  0.27594870  0.16940400  0.69921607    -0.17900
C416        C  0.24277221  0.15152476  0.70151518     0.10500
S417        S  0.30593453  0.11388120  0.61395746    -0.32800
S418        S  0.25037911  0.11120095  0.72726698    -0.32800
H419        H  0.26234655  0.12809955  0.75758960     0.28500
H420        H  0.33247646  0.10379070  0.63879647     0.28500
H421        H  0.23172579  0.13362459  0.61693482     0.19100
H422        H  0.28625142  0.17542925  0.72454442     0.19100
C423        C  0.17331629  0.19850636  0.66132869    -0.06700
C424        C  0.15389117  0.22071492  0.68482321    -0.17800
C425        C  0.13827726  0.25286896  0.67473815     0.10500
C426        C  0.15961696  0.27468475  0.65265473    -0.06600
C427        C  0.18029974  0.25554761  0.62697591    -0.17900
C428        C  0.18398941  0.21731319  0.62917254     0.10500
S429        S  0.09563239  0.26597530  0.69602392    -0.32800
S430        S  0.20185571  0.19514366  0.59079573    -0.32800
H431        H  0.19707950  0.22408509  0.56710471     0.28500
H432        H  0.08703568  0.29265444  0.67100383     0.28500
H433        H  0.15097837  0.21571909  0.71200468     0.19100
H434        H  0.19433718  0.27031953  0.60625476     0.19100
C435        C  0.20914674  0.32279569  0.65837946    -0.06700
C436        C  0.22644842  0.35135194  0.63947032    -0.17800
C437        C  0.26362377  0.36176548  0.64677951     0.10500
C438        C  0.28372845  0.34445962  0.67554311    -0.06600
C439        C  0.26098732  0.32341454  0.69636209    -0.17900
C440        C  0.23358306  0.30453343  0.68081482     0.10500
S441        S  0.27869108  0.40021761  0.62156732    -0.32800
S442        S  0.24222766  0.25747543  0.67745805    -0.32800
H443        H  0.25109876  0.25371519  0.71311677     0.28500
H444        H  0.30209596  0.41386643  0.64674256     0.28500
H445        H  0.21180805  0.36569504  0.61896185     0.19100
H446        H  0.26777351  0.31651336  0.72242011     0.19100
C447        C  0.15351070  0.32662122  0.77913708    -0.06700
C448        C  0.12721418  0.34488127  0.75791783    -0.17800
C449        C  0.12819492  0.34303321  0.72008386     0.10500
C450        C  0.15512819  0.32034845  0.70266615    -0.06600
C451        C  0.17334505  0.29686205  0.72596282    -0.17900
C452        C  0.17697747  0.30200374  0.76121849     0.10500
S453        S  0.09016199  0.36434064  0.69749702    -0.32800
S454        S  0.21929963  0.28238041  0.77791957    -0.32800
H455        H  0.20464828  0.25573503  0.79793583     0.28500
H456        H  0.08151392  0.38933707  0.72365984     0.28500
H457        H  0.10636057  0.36100698  0.77074307     0.19100
H458        H  0.18751626  0.27394678  0.71655043     0.19100
C459        C  0.19680481  0.34647624  0.82640903    -0.06700
C460        C  0.21152179  0.35198034  0.86052916    -0.17800
C461        C  0.25008591  0.35918603  0.86525009     0.10500
C462        C  0.27549646  0.35185349  0.83671152    -0.06600
C463        C  0.25817718  0.34662525  0.80465402    -0.17900
C464        C  0.22215988  0.35638821  0.79895281     0.10500
S465        S  0.26535408  0.37219297  0.90818459    -0.32800
S466        S  0.21565195  0.37347742  0.75413498    -0.32800
H467        H  0.18037730  0.38714812  0.75402957     0.28500
H468        H  0.23169169  0.36724973  0.92599991     0.28500
H469        H  0.19329694  0.35033479  0.88317137     0.19100
H470        H  0.27297701  0.33667792  0.78221648     0.19100
C471        C  0.15270951  0.15475464  0.78128663    -0.06700
C472        C  0.12841812  0.17189594  0.75669760    -0.17800
C473        C  0.12654870  0.16069147  0.72122682     0.10500
C474        C  0.15858154  0.14480700  0.70678682    -0.06600
C475        C  0.17109729  0.11806927  0.73025978    -0.17900
C476        C  0.16799268  0.12225080  0.76739790     0.10500
S477        S  0.08684508  0.17136333  0.69478465    -0.32800
S478        S  0.18332258  0.08518382  0.79440075    -0.32800
H479        H  0.15118578  0.08441885  0.81510971     0.28500
H480        H  0.06497652  0.18423178  0.72274574     0.28500
H481        H  0.11096292  0.19390042  0.76317403     0.19100
H482        H  0.18295819  0.09389604  0.72018326     0.19100
C483        C  0.28901217  0.17103450  0.82038955    -0.06700
C484        C  0.26752857  0.18943190  0.79491675    -0.17800
C485        C  0.22924423  0.18659936  0.79256431     0.10500
C486        C  0.20855817  0.16606231  0.81745724    -0.06600
C487        C  0.23069135  0.14113097  0.83690674    -0.17900
C488        C  0.26995567  0.14258783  0.83807064     0.10500
S489        S  0.21083709  0.20429500  0.75222716    -0.32800
S490        S  0.29386699  0.10440608  0.85708570    -0.32800
H491        H  0.26338437  0.08259513  0.86352642     0.28500
H492        H  0.17799648  0.21841869  0.76537402     0.28500
H493        H  0.28084980  0.20766984  0.77684211     0.19100
H494        H  0.21786973  0.11877331  0.84976256     0.19100
C495        C  0.15615576  0.21074577  0.82974094    -0.06700
C496        C  0.12495260  0.23012423  0.81801737    -0.17800
C497        C  0.12241927  0.26791215  0.81849022     0.10500
C498        C  0.15197377  0.28863224  0.83149928    -0.06600
C499        C  0.17585502  0.26933085  0.85374897    -0.17900
C500        C  0.17744094  0.23126874  0.85415753     0.10500
S501        S  0.08012253  0.28888172  0.80376476    -0.32800
S502        S  0.20031354  0.21253056  0.89197476    -0.32800
H503        H  0.23070087  0.19919489  0.87385398     0.28500
H504        H  0.06777501  0.26000409  0.78413214     0.28500
H505        H  0.10096673  0.21622670  0.81073030     0.19100
H506        H  0.19331130  0.28381824  0.87081678     0.19100
C507        C  0.14299475  0.14639703  0.84800128    -0.06700
C508        C  0.15902881  0.13701978  0.88079307    -0.17800
C509        C  0.14159044  0.11566862  0.90668660     0.10500
C510        C  0.10642695  0.10200990  0.90004009    -0.06600
C511        C  0.08894616  0.11331059  0.86928799    -0.17900
C512        C  0.10511449  0.13637958  0.84467091     0.10500
S513        S  0.16451686  0.10838443  0.94824643    -0.32800
S514        S  0.07374669  0.15131763  0.81082656    -0.32800
H515        H  0.04099176  0.14917808  0.83078902     0.28500
H516        H  0.19797273  0.12480361  0.93958857     0.28500
H517        H  0.18543424  0.14656642  0.88724867     0.19100
H518        H  0.06146371  0.10417668  0.86426137     0.19100
C519        C  0.09899849  0.39279931  0.59948159    -0.06700
C520        C  0.09472021  0.35667591  0.59358019    -0.17800
C521        C  0.11638670  0.33044729  0.61054931     0.10500
C522        C  0.14277075  0.34063692  0.63665751    -0.06600
C523        C  0.14719572  0.37780544  0.64113363    -0.17900
C524        C  0.12647564  0.40363552  0.62259739     0.10500
S525        S  0.10666614  0.28550782  0.59698560    -0.32800
S526        S  0.13721549  0.44983279  0.62936972    -0.32800
H527        H  0.10247490  0.46443000  0.62167177     0.28500
H528        H  0.09548270  0.29419257  0.56244293     0.28500
H529        H  0.07385315  0.34889400  0.57517311     0.19100
H530        H  0.16626026  0.38700675  0.66060269     0.19100
C531        C  0.36935914  0.16424512  0.64487979    -0.06700
C532        C  0.40238678  0.14702730  0.65624701    -0.17800
C533        C  0.42514993  0.12727965  0.63393180     0.10500
C534        C  0.41492038  0.12319315  0.59858104    -0.06600
C535        C  0.38660395  0.14539892  0.58529069    -0.17900
C536        C  0.36487599  0.16717993  0.60749272     0.10500
S537        S  0.46635719  0.10692430  0.65230372    -0.32800
S538        S  0.33196489  0.19640173  0.58528360    -0.32800
H539        H  0.31184184  0.20903011  0.61409219     0.28500
H540        H  0.46789474  0.12724652  0.68306378     0.28500
H541        H  0.41101557  0.14776603  0.68321463     0.19100
H542        H  0.38060866  0.14521317  0.55740634     0.19100
C543        C  0.15880352  0.13422648  0.64109646    -0.06700
C544        C  0.12931645  0.15046511  0.62210792    -0.17800
C545        C  0.10741647  0.13174793  0.59899332     0.10500
C546        C  0.11391120  0.09524650  0.59415150    -0.06600
C547        C  0.14322537  0.07850861  0.61157511    -0.17900
C548        C  0.16554668  0.09702424  0.63500659     0.10500
S549        S  0.07073081  0.15594262  0.57709684    -0.32800
S550        S  0.20157678  0.07132151  0.65646919    -0.32800
H551        H  0.19920036  0.04012300  0.63663384     0.28500
H552        H  0.07083893  0.13508936  0.54664175     0.28500
H553        H  0.12173060  0.17809152  0.62576289     0.19100
H554        H  0.14755100  0.05018632  0.60786116     0.19100
C555        C  0.33838640  0.36644530  0.86573685    -0.06700
C556        C  0.34179061  0.40344051  0.85845595    -0.17800
C557        C  0.36468633  0.42533113  0.87746556     0.10500
C558        C  0.38372807  0.41110128  0.90648941    -0.06600
C559        C  0.37759244  0.37593490  0.91713646    -0.17900
C560        C  0.35473010  0.35350593  0.89798885     0.10500
S561        S  0.36905355  0.47107107  0.86247804    -0.32800
S562        S  0.34341336  0.31163800  0.91953916    -0.32800
H563        H  0.36938997  0.31201117  0.94668059     0.28500
H564        H  0.37542460  0.48567839  0.89565917     0.28500
H565        H  0.32724352  0.41599696  0.83709095     0.19100
H566        H  0.39075842  0.36619898  0.94094875     0.19100
C567        C  0.35379974  0.15902514  0.85072909    -0.06700
C568        C  0.38126249  0.13488739  0.83816900    -0.17800
C569        C  0.39988579  0.11054832  0.85979974     0.10500
C570        C  0.39640733  0.11253112  0.89675820    -0.06600
C571        C  0.37024462  0.13678085  0.91042365    -0.17900
C572        C  0.34834187  0.15914821  0.88815466     0.10500
S573        S  0.42409316  0.07514881  0.83720624    -0.32800
S574        S  0.31292065  0.18642186  0.90825591    -0.32800
H575        H  0.31913410  0.17584649  0.94344401     0.28500
H576        H  0.41211627  0.04826091  0.86077216     0.28500
H577        H  0.38856181  0.13312956  0.81074774     0.19100
H578        H  0.36673597  0.13790779  0.93873821     0.19100
C579        C  0.12865594  0.35343936  0.84163768    -0.06700
C580        C  0.11115142  0.33833415  0.87222248    -0.17800
C581        C  0.09080039  0.35853389  0.89657151     0.10500
C582        C  0.08609513  0.39531373  0.89102270    -0.06600
C583        C  0.10155137  0.41091924  0.86084054    -0.17900
C584        C  0.12375862  0.39128734  0.83717393     0.10500
S585        S  0.07243276  0.33573097  0.93499729    -0.32800
S586        S  0.14796666  0.41710493  0.80445170    -0.32800
H587        H  0.13655802  0.45148921  0.81446227     0.28500
H588        H  0.04192845  0.35860069  0.93999150     0.28500
H589        H  0.11425410  0.31048319  0.87918317     0.19100
H590        H  0.09791718  0.43942901  0.85709650     0.19100
C591        C  0.35060157  0.36333874  0.65665381    -0.06700
C592        C  0.37257821  0.39164763  0.66863514    -0.17800
C593        C  0.39306897  0.41372994  0.64599595     0.10500
C594        C  0.39274066  0.40828011  0.60941361    -0.06600
C595        C  0.37201529  0.38028260  0.59660894    -0.17900
C596        C  0.35137538  0.35766105  0.61906445     0.10500
S597        S  0.41712786  0.45076853  0.66459540    -0.32800
S598        S  0.32650510  0.32384626  0.59558921    -0.32800
H599        H  0.30637986  0.30779995  0.62282860     0.28500
H600        H  0.41651529  0.43869079  0.69990268     0.28500
H601        H  0.37343161  0.39818737  0.69606714     0.19100
H602        H  0.37192221  0.37590475  0.56844557     0.19100
C603        C  0.41368613  0.93194325  0.08400921     0.41900
N604        N  0.45415937  0.96929715  0.06540159     0.00800
C605        C  0.45562934  0.57364226  0.41345155    -0.07100
H606        H  0.45916259  0.94024755  0.38971009     0.06300
C607        C  0.08183042  0.93035715  0.45067346    -0.07400
Co608      Co  0.43037152  0.01041430  0.50107234     0.74200
N609        N  0.45371059  0.97072217  0.43727290    -0.26600
Co610      Co  0.99794489  0.00586305  0.43645081     0.74100
C611        C  0.06728202  0.91814541  0.41715126     0.42000
N612        N  0.06074589  0.95700407  0.04041694     0.00400
N613        N  0.03479102  0.96267104  0.43533509     0.00500
N614        N  0.40811280  0.57388571  0.45215413    -0.47500
H615        H  0.37557846  0.94580677  0.03739656     0.06300
N616        N  0.42822888  0.97182144  0.46233906     0.00800
N617        N  0.04292298  0.53863771  0.43713138     0.00500
C618        C  0.08525927  0.57596540  0.42230544     0.42100
N619        N  0.03616585  0.96092057  0.06603818    -0.26100
C620        C  0.41535473  0.57866602  0.04470670    -0.07000
N621        N  0.44654147  0.94621387  0.09117434    -0.47200
N622        N  0.05191299  0.56332187  0.41345792    -0.47400
C623        C  0.43152713  0.59466701  0.07579152     0.41900
N624        N  0.43327868  0.54919154  0.46075883     0.00800
N625        N  0.04268641  0.53756455  0.06346021    -0.26100
N626        N  0.42806483  0.97165657  0.04149395    -0.26600
N627        N  0.06895906  0.53412050  0.03946859     0.00400
H628        H  0.03716293  0.56989109  0.10981972     0.06300
H629        H  0.12132091  0.55586030  0.46890815     0.06300
N630        N  0.46060892  0.54781453  0.43772127    -0.23100
N631        N  0.05997936  0.95803550  0.45984641    -0.26300
N632        N  0.46165447  0.54654120  0.06263509     0.00800
C633        C  0.40992833  0.93182027  0.42728464     0.42200
C634        C  0.04431042  0.93757860  0.09214631    -0.07500
N635        N  0.06859252  0.53380050  0.46097294    -0.26300
H636        H  0.10639401  0.92162232  0.46430524     0.06300
N637        N  0.40117454  0.94935159  0.45706399    -0.47500
H638        H  0.03078284  0.93609248  0.11763530     0.06300
C639        C  0.08814173  0.57449392  0.07383327     0.42000
C640        C  0.40138040  0.94869864  0.05083805    -0.07000
Co641      Co  0.49876805  0.50311621  0.06428557     0.73800
N642        N  0.08595491  0.93227337  0.04766517    -0.47200
C643        C  0.42004514  0.59033096  0.42211072     0.42300
N644        N  0.45981005  0.57289748  0.08532062    -0.47200
Co645      Co  0.06506486  0.49599513  0.00000488     0.73900
C646        C  0.09635282  0.55586489  0.45397444    -0.07500
C647        C  0.44440234  0.94622030  0.41383326    -0.07100
N648        N  0.43569442  0.54912300  0.03870501    -0.26600
N649        N  0.03873695  0.94003471  0.40906662    -0.47400
H650        H  0.47323801  0.57777625  0.39070455     0.06300
C651        C  0.05230778  0.56256878  0.08629406    -0.07500
Cl652      Cl  0.99771138  0.50381904  0.00059800    -0.50500
C653        C  0.07722890  0.91877435  0.07966099     0.42000
H654        H  0.39153506  0.58716856  0.02979829     0.06200
N655        N  0.09713767  0.55522479  0.04515501    -0.47200
C656        C  0.16461607  0.66964646  0.31960349    -0.03100
C657        C  0.15782557  0.82992127  0.31999020    -0.03100
C658        C  0.16635973  0.81556634  0.16170790    -0.03100
C659        C  0.17845343  0.65696745  0.16992202    -0.03100
C660        C  0.33141984  0.68286624  0.32433187    -0.03100
C661        C  0.34216884  0.67966216  0.17332619    -0.03100
C662        C  0.32755452  0.84148497  0.18460381    -0.03100
C663        C  0.31934133  0.84393551  0.33716585    -0.03100
C664        C  0.33561962  0.85435709  0.22352106    -0.06700
C665        C  0.36586841  0.84004658  0.24287723    -0.17800
C666        C  0.36664943  0.84129790  0.28030450     0.10500
C667        C  0.33635709  0.85683316  0.29901922    -0.06600
C668        C  0.31834557  0.88406110  0.27835238    -0.17900
C669        C  0.31632917  0.88203977  0.24119433     0.10500
S670        S  0.41053162  0.83228881  0.29997691    -0.32800
S671        S  0.29001477  0.91565406  0.21770163    -0.32800
H672        H  0.28614874  0.93968029  0.24561263     0.28500
H673        H  0.40388369  0.85395877  0.32929394     0.28500
H674        H  0.38761419  0.82571669  0.22918784     0.19100
H675        H  0.29958383  0.90263042  0.29084477     0.19100
C676        C  0.34219064  0.72262838  0.17256837    -0.06700
C677        C  0.32205614  0.73874237  0.19979388    -0.17800
C678        C  0.32429341  0.77414241  0.20901084     0.10500
C679        C  0.33847105  0.79974081  0.18437446    -0.06600
C680        C  0.36367194  0.78442117  0.15996806    -0.17900
C681        C  0.36728938  0.74682823  0.15500516     0.10500
S682        S  0.31373462  0.78161713  0.25521801    -0.32800
S683        S  0.40763150  0.73260976  0.13049569    -0.32800
H684        H  0.42756911  0.76432790  0.13251448     0.28500
H685        H  0.32295089  0.74800052  0.26831773     0.28500
H686        H  0.30848417  0.72279822  0.21888205     0.19100
H687        H  0.38186075  0.80162185  0.14526431     0.19100
C688        C  0.34805536  0.67717572  0.28558447    -0.06700
C689        C  0.33849826  0.64494019  0.26854390    -0.17800
C690        C  0.34454775  0.63985014  0.23232173     0.10500
C691        C  0.35658995  0.66892730  0.21148230    -0.06600
C692        C  0.37867446  0.69268976  0.22942149    -0.17900
C693        C  0.37325154  0.69902659  0.26537248     0.10500
S694        S  0.33801208  0.59620328  0.21480155    -0.32800
S695        S  0.40090595  0.73475464  0.28052513    -0.32800
H696        H  0.39829499  0.75656056  0.25003563     0.28500
H697        H  0.36871314  0.59711596  0.19232549     0.28500
H698        H  0.32577282  0.62358206  0.28357506     0.19100
H699        H  0.39651067  0.70996616  0.21409366     0.19100
C700        C  0.33121913  0.72415017  0.33580432    -0.06700
C701        C  0.29730622  0.74256435  0.34072265    -0.17800
C702        C  0.29438491  0.77841409  0.34946290     0.10500
C703        C  0.32418206  0.80157562  0.34292172    -0.06600
C704        C  0.35848001  0.78336320  0.34603505    -0.17900
C705        C  0.36170126  0.74528149  0.34645084     0.10500
S706        S  0.26375609  0.78544280  0.38624318    -0.32800
S707        S  0.40334432  0.72713972  0.36588211    -0.32800
H708        H  0.40944682  0.69924246  0.34251588     0.28500
H709        H  0.27047764  0.75248277  0.40330996     0.28500
H710        H  0.27234444  0.72845438  0.34449386     0.19100
H711        H  0.38216366  0.79832243  0.35311413     0.19100
C712        C  0.22190490  0.64984842  0.17064250    -0.06700
C713        C  0.24421170  0.64430553  0.14034021    -0.17800
C714        C  0.28333932  0.64613498  0.14184949     0.10500
C715        C  0.30035044  0.66533476  0.17014042    -0.06600
C716        C  0.27601269  0.66914649  0.19951202    -0.17900
C717        C  0.24274183  0.65138709  0.20156428     0.10500
S718        S  0.30583698  0.61335754  0.11462487    -0.32800
S719        S  0.25057895  0.61041063  0.22621506    -0.32800
H720        H  0.26231520  0.62667201  0.25701963     0.28500
H721        H  0.33229960  0.60343764  0.13960334     0.28500
H722        H  0.23178308  0.63420378  0.11685304     0.19100
H723        H  0.28636767  0.67503422  0.22489131     0.19100
C724        C  0.17351563  0.69916146  0.16129866    -0.06700
C725        C  0.15450678  0.72137268  0.18503816    -0.17800
C726        C  0.13877253  0.75348690  0.17511423     0.10500
C727        C  0.15997106  0.77529234  0.15287039    -0.06600
C728        C  0.18028468  0.75620394  0.12690601    -0.17900
C729        C  0.18402569  0.71795703  0.12907176     0.10500
S730        S  0.09640244  0.76656868  0.19696915    -0.32800
S731        S  0.20189632  0.69565479  0.09073520    -0.32800
H732        H  0.20265136  0.72569978  0.06804781     0.28500
H733        H  0.08768620  0.79373480  0.17253347     0.28500
H734        H  0.15204006  0.71633215  0.21226661     0.19100
H735        H  0.19408097  0.77107171  0.10611189     0.19100
C736        C  0.20979407  0.82314978  0.15848447    -0.06700
C737        C  0.22712133  0.85193078  0.13992869    -0.17800
C738        C  0.26425284  0.86232063  0.14741920     0.10500
C739        C  0.28437565  0.84465175  0.17595810    -0.06600
C740        C  0.26166353  0.82326511  0.19645871    -0.17900
C741        C  0.23426122  0.80458778  0.18066335     0.10500
S742        S  0.27919506  0.90116490  0.12270664    -0.32800
S743        S  0.24243971  0.75744267  0.17733484    -0.32800
H744        H  0.25130128  0.75361986  0.21299235     0.28500
H745        H  0.30311671  0.91433866  0.14765728     0.28500
H746        H  0.21255022  0.86648457  0.11952118     0.19100
H747        H  0.26842831  0.81600703  0.22242623     0.19100
C748        C  0.15409658  0.82698971  0.27914447    -0.06700
C749        C  0.12797308  0.84555368  0.25802381    -0.17800
C750        C  0.12886573  0.84374271  0.22021168     0.10500
C751        C  0.15579116  0.82099983  0.20280386    -0.06600
C752        C  0.17400160  0.79744322  0.22600392    -0.17900
C753        C  0.17754771  0.80236369  0.26123436     0.10500
S754        S  0.09095515  0.86532744  0.19753830    -0.32800
S755        S  0.21994632  0.78268869  0.27782936    -0.32800
H756        H  0.20566136  0.75616575  0.29831665     0.28500
H757        H  0.07807055  0.88642092  0.22549662     0.28500
H758        H  0.10741808  0.86190420  0.27098444     0.19100
H759        H  0.18812888  0.77453021  0.21656898     0.19100
C760        C  0.19734933  0.84675983  0.32610326    -0.06700
C761        C  0.21203841  0.85249741  0.36012970    -0.17800
C762        C  0.25051932  0.85988955  0.36476865     0.10500
C763        C  0.27599369  0.85222769  0.33636817    -0.06600
C764        C  0.25874264  0.84725927  0.30418711    -0.17900
C765        C  0.22262743  0.85682011  0.29854941     0.10500
S766        S  0.26539484  0.87337191  0.40761620    -0.32800
S767        S  0.21585607  0.87392232  0.25373790    -0.32800
H768        H  0.18083039  0.88832508  0.25427790     0.28500
H769        H  0.23008875  0.88063434  0.42141526     0.28500
H770        H  0.19393398  0.85075153  0.38286549     0.19100
H771        H  0.27357257  0.83744808  0.28169585     0.19100
C772        C  0.15306639  0.65516606  0.28136363    -0.06700
C773        C  0.12882462  0.67256135  0.25688892    -0.17800
C774        C  0.12677405  0.66158582  0.22137679     0.10500
C775        C  0.15863155  0.64554081  0.20674817    -0.06600
C776        C  0.17119077  0.61872025  0.23007841    -0.17900
C777        C  0.16836208  0.62275223  0.26723622     0.10500
S778        S  0.08703617  0.67272309  0.19515151    -0.32800
S779        S  0.18459847  0.58573142  0.29384379    -0.32800
H780        H  0.15351466  0.58512309  0.31594688     0.28500
H781        H  0.06518168  0.68503119  0.22338131     0.28500
H782        H  0.11146586  0.69458662  0.26347855     0.19100
H783        H  0.18283624  0.59454162  0.21982438     0.19100
C784        C  0.28920373  0.67059907  0.32106219    -0.06700
C785        C  0.26792930  0.68850803  0.29515772    -0.17800
C786        C  0.22964827  0.68610770  0.29290230     0.10500
C787        C  0.20874950  0.66597254  0.31795283    -0.06600
C788        C  0.23065811  0.64123882  0.33788186    -0.17900
C789        C  0.26990348  0.64270518  0.33940986     0.10500
S790        S  0.21145356  0.70431871  0.25269353    -0.32800
S791        S  0.29333438  0.60477746  0.35940297    -0.32800
H792        H  0.26300626  0.59024735  0.37751092     0.28500
H793        H  0.17878615  0.71874612  0.26590464     0.28500
H794        H  0.28138056  0.70640361  0.27686621     0.19100
H795        H  0.21772144  0.61884209  0.35059558     0.19100
C796        C  0.15654542  0.71089562  0.32994308    -0.06700
C797        C  0.12536543  0.73020489  0.31819990    -0.17800
C798        C  0.12305650  0.76798090  0.31806367     0.10500
C799        C  0.15249122  0.78877958  0.33127031    -0.06600
C800        C  0.17608062  0.76956570  0.35386066    -0.17900
C801        C  0.17782544  0.73148665  0.35429604     0.10500
S802        S  0.08109453  0.78869959  0.30223105    -0.32800
S803        S  0.20073005  0.71276000  0.39211468    -0.32800
H804        H  0.23135990  0.69988118  0.37404751     0.28500
H805        H  0.07017309  0.75998896  0.28155884     0.28500
H806        H  0.10126079  0.71627192  0.31125493     0.19100
H807        H  0.19302215  0.78419250  0.37125905     0.19100
C808        C  0.14289092  0.64658981  0.34799290    -0.06700
C809        C  0.15854820  0.63728565  0.38093707    -0.17800
C810        C  0.14116410  0.61537020  0.40636772     0.10500
C811        C  0.10615541  0.60151819  0.39933227    -0.06600
C812        C  0.08883126  0.61298978  0.36854582    -0.17900
C813        C  0.10536996  0.63575973  0.34388028     0.10500
S814        S  0.16435256  0.60709652  0.44762093    -0.32800
S815        S  0.07390580  0.65131477  0.31045973    -0.32800
H816        H  0.05629764  0.61855588  0.30600018     0.28500
H817        H  0.19290607  0.63162621  0.44298501     0.28500
H818        H  0.18484321  0.64691977  0.38767738     0.19100
H819        H  0.06089171  0.60488707  0.36394213     0.19100
C820        C  0.10078965  0.89345475  0.09924649    -0.06700
C821        C  0.09571586  0.85741847  0.09377859    -0.17800
C822        C  0.11668296  0.83103951  0.11120546     0.10500
C823        C  0.14342440  0.84118342  0.13701792    -0.06600
C824        C  0.14816380  0.87831922  0.14148754    -0.17900
C825        C  0.12817559  0.90418613  0.12239741     0.10500
S826        S  0.10498222  0.78603709  0.09925682    -0.32800
S827        S  0.13814486  0.95042529  0.12963970    -0.32800
H828        H  0.13072975  0.96239170  0.09510726     0.28500
H829        H  0.09188316  0.79393141  0.06519456     0.28500
H830        H  0.07447248  0.84987704  0.07567201     0.19100
H831        H  0.16706973  0.88744531  0.16113823     0.19100
C832        C  0.36932421  0.66388567  0.14508108    -0.06700
C833        C  0.40238136  0.64664534  0.15629072    -0.17800
C834        C  0.42513568  0.62699537  0.13381113     0.10500
C835        C  0.41480457  0.62290844  0.09846680    -0.06600
C836        C  0.38632237  0.64504051  0.08536081    -0.17900
C837        C  0.36465433  0.66678274  0.10769334     0.10500
S838        S  0.46663817  0.60693249  0.15186137    -0.32800
S839        S  0.33164409  0.69602261  0.08562171    -0.32800
H840        H  0.31178146  0.70886156  0.11450002     0.28500
H841        H  0.46763997  0.62634298  0.18322361     0.28500
H842        H  0.41107496  0.64743510  0.18323973     0.19100
H843        H  0.38019878  0.64488526  0.05750229     0.19100
C844        C  0.15861194  0.63506865  0.14103543    -0.06700
C845        C  0.12914200  0.65144271  0.12210404    -0.17800
C846        C  0.10736102  0.63291365  0.09870304     0.10500
C847        C  0.11380514  0.59640763  0.09371381    -0.06600
C848        C  0.14296715  0.57953732  0.11124265    -0.17900
C849        C  0.16530580  0.59793102  0.13471125     0.10500
S850        S  0.07095507  0.65738959  0.07663648    -0.32800
S851        S  0.20111550  0.57190540  0.15600078    -0.32800
H852        H  0.20328359  0.54442734  0.13124217     0.28500
H853        H  0.07010897  0.63600310  0.04658726     0.28500
H854        H  0.12157065  0.67904876  0.12593188     0.19100
H855        H  0.14720930  0.55117032  0.10766527     0.19100
C856        C  0.33867402  0.86650968  0.36587539    -0.06700
C857        C  0.34275645  0.90342192  0.35849833    -0.17800
C858        C  0.36553919  0.92509871  0.37785529     0.10500
C859        C  0.38377062  0.91079717  0.40731828    -0.06600
C860        C  0.37681731  0.87580312  0.41807546    -0.17900
C861        C  0.35413904  0.85355778  0.39850579     0.10500
S862        S  0.37074000  0.97073552  0.36285495    -0.32800
S863        S  0.34164617  0.81208423  0.42010240    -0.32800
H864        H  0.37001775  0.81037869  0.44495802     0.28500
H865        H  0.37563490  0.98535529  0.39629367     0.28500
H866        H  0.32884302  0.91611910  0.33684083     0.19100
H867        H  0.38912524  0.86604308  0.44230744     0.19100
C868        C  0.35388189  0.65887607  0.35149054    -0.06700
C869        C  0.38118267  0.63449536  0.33908354    -0.17800
C870        C  0.39969056  0.61021154  0.36088732     0.10500
C871        C  0.39639115  0.61258573  0.39782886    -0.06600
C872        C  0.37029707  0.63700953  0.41133908    -0.17900
C873        C  0.34838546  0.65920030  0.38890658     0.10500
S874        S  0.42346777  0.57434395  0.33859813    -0.32800
S875        S  0.31296989  0.68656875  0.40885676    -0.32800
H876        H  0.31350110  0.66995329  0.44236540     0.28500
H877        H  0.41158916  0.54784215  0.36264583     0.28500
H878        H  0.38837880  0.63246003  0.31166397     0.19100
H879        H  0.36689802  0.63855471  0.43964831     0.19100
C880        C  0.12914245  0.85353865  0.34161637    -0.06700
C881        C  0.11093954  0.83812109  0.37166835    -0.17800
C882        C  0.09050529  0.85813008  0.39611561     0.10500
C883        C  0.08634684  0.89505478  0.39114227    -0.06600
C884        C  0.10258077  0.91099809  0.36151271    -0.17900
C885        C  0.12466281  0.89147260  0.33766698     0.10500
S886        S  0.07158567  0.83485016  0.43402662    -0.32800
S887        S  0.14988855  0.91767667  0.30602221    -0.32800
H888        H  0.12967188  0.94978712  0.30875352     0.28500
H889        H  0.04181131  0.85837110  0.43991619     0.28500
H890        H  0.11351348  0.81012440  0.37817208     0.19100
H891        H  0.09990139  0.93967951  0.35849855     0.19100
C892        C  0.35115002  0.86344657  0.15678924    -0.06700
C893        C  0.37298809  0.89195596  0.16860732    -0.17800
C894        C  0.39225074  0.91476447  0.14575376     0.10500
C895        C  0.39226871  0.90910948  0.10918450    -0.06600
C896        C  0.37195250  0.88072513  0.09656456    -0.17900
C897        C  0.35155693  0.85796971  0.11915663     0.10500
S898        S  0.41425689  0.95231566  0.16528379    -0.32800
S899        S  0.32646485  0.82424397  0.09579714    -0.32800
H900        H  0.30664519  0.80805826  0.12316123     0.28500
H901        H  0.40296628  0.97695492  0.13902672     0.28500
H902        H  0.37456833  0.89844069  0.19608805     0.19100
H903        H  0.37189592  0.87619973  0.06842757     0.19100
C904        C  0.41342318  0.93193443  0.58432429     0.41900
N905        N  0.45410077  0.96904146  0.56573577     0.00800
C906        C  0.45690224  0.57439914  0.91340594    -0.07100
H907        H  0.45879036  0.94075851  0.88875737     0.06300
C908        C  0.08231589  0.92960526  0.95126437    -0.07400
Co909      Co  0.43043450  0.01039633  0.00051051     0.74200
N910        N  0.45380220  0.97068521  0.93671735    -0.26600
Co911      Co  0.99848020  0.00501069  0.93702885     0.74100
C912        C  0.06763715  0.91734230  0.91775475     0.42000
N913        N  0.05995883  0.95632580  0.53950053     0.00400
N914        N  0.03516005  0.96179154  0.93611926     0.00500
N915        N  0.40906517  0.57437654  0.95169492    -0.47500
H916        H  0.37525341  0.94616914  0.53786829     0.06300
N917        N  0.42835317  0.97176700  0.96182567     0.00800
N918        N  0.04246034  0.54037885  0.93788972     0.00500
C919        C  0.08377685  0.57903316  0.92392547     0.42100
N920        N  0.03519324  0.95981267  0.56499305    -0.26100
C921        C  0.41542653  0.57902260  0.54522162    -0.07000
N922        N  0.44639774  0.94595104  0.59146708    -0.47200
N923        N  0.05073395  0.56587885  0.91483678    -0.47400
C924        C  0.43190567  0.59518072  0.57606376     0.41900
N925        N  0.43393312  0.54931425  0.96009357     0.00800
N926        N  0.04245246  0.53737060  0.56282818    -0.26100
N927        N  0.42795195  0.97161429  0.54190345    -0.26600
N928        N  0.06888954  0.53338449  0.53906554     0.00400
H929        H  0.03735825  0.56953128  0.60932279     0.06300
H930        H  0.12046535  0.55869396  0.96994441     0.06300
N931        N  0.46140088  0.54804739  0.93721012    -0.23100
N932        N  0.06046516  0.95728411  0.96053624    -0.26300
N933        N  0.46167837  0.54684648  0.56312437     0.00800
C934        C  0.40960549  0.93233165  0.92640617     0.42200
C935        C  0.04248114  0.93518228  0.59022997    -0.07500
N936        N  0.06830190  0.53552363  0.96155723    -0.26300
H937        H  0.10704592  0.92101145  0.96469981     0.06300
N938        N  0.40107946  0.94960281  0.95637725    -0.47500
H939        H  0.02844626  0.93282019  0.61540920     0.06300
C940        C  0.08879926  0.57303814  0.57383516     0.42000
C941        C  0.40112563  0.94883318  0.55124372    -0.07000
Co942      Co  0.49860616  0.50338396  0.56494096     0.73800
N943        N  0.08447141  0.93069370  0.54604272    -0.47200
C944        C  0.42134805  0.59123620  0.92198672     0.42300
N945        N  0.46013613  0.57338213  0.58559538    -0.47200
Co946      Co  0.06473800  0.49490513  0.49997237     0.73900
C947        C  0.09549154  0.55837375  0.95502627    -0.07500
C948        C  0.44418907  0.94654354  0.91301443    -0.07100
N949        N  0.43556951  0.54934088  0.53932908    -0.26600
N950        N  0.03899988  0.93914830  0.90985698    -0.47400
H951        H  0.47495302  0.57895822  0.89106795     0.06300
C952        C  0.05246188  0.56206723  0.58581601    -0.07500
Cl953      Cl  0.99738674  0.50328836  0.50023306    -0.50500
C954        C  0.07502078  0.91586678  0.57733982     0.42000
H955        H  0.39157084  0.58755194  0.53037936     0.06200
N956        N  0.09758818  0.55372540  0.54512837    -0.47200
C957        C  0.16435810  0.66981516  0.81984224    -0.03100
C958        C  0.15770149  0.83000483  0.81927746    -0.03100
C959        C  0.16590347  0.81427058  0.66076027    -0.03100
C960        C  0.17847897  0.65564888  0.67042075    -0.03100
C961        C  0.33132465  0.68291851  0.82434331    -0.03100
C962        C  0.34221477  0.67979951  0.67320540    -0.03100
C963        C  0.32704379  0.84116495  0.68418492    -0.03100
C964        C  0.31917139  0.84403790  0.83671418    -0.03100
C965        C  0.33496274  0.85404178  0.72312964    -0.06700
C966        C  0.36540391  0.84002202  0.74244024    -0.17800
C967        C  0.36634954  0.84147712  0.77983914     0.10500
C968        C  0.33609950  0.85702405  0.79858815    -0.06600
C969        C  0.31780767  0.88401442  0.77783971    -0.17900
C970        C  0.31562481  0.88173862  0.74068989     0.10500
S971        S  0.41031353  0.83258310  0.79940504    -0.32800
S972        S  0.28937724  0.91519586  0.71689574    -0.32800
H973        H  0.28247714  0.93801507  0.74531723     0.28500
H974        H  0.40366288  0.85420521  0.82875904     0.28500
H975        H  0.38718377  0.82573928  0.72874851     0.19100
H976        H  0.29907567  0.90258737  0.79034020     0.19100
C977        C  0.34220965  0.72266333  0.67231125    -0.06700
C978        C  0.32189901  0.73870969  0.69939501    -0.17800
C979        C  0.32419115  0.77400911  0.70865082     0.10500
C980        C  0.33826088  0.79959179  0.68399462    -0.06600
C981        C  0.36360551  0.78441949  0.65964758    -0.17900
C982        C  0.36716368  0.74686909  0.65457515     0.10500
S983        S  0.31382735  0.78132721  0.75492391    -0.32800
S984        S  0.40824770  0.73293926  0.63114570    -0.32800
H985        H  0.41117780  0.76355304  0.60940091     0.28500
H986        H  0.32329558  0.74770453  0.76788467     0.28500
H987        H  0.30826938  0.72281636  0.71840825     0.19100
H988        H  0.38235659  0.80166114  0.64563720     0.19100
C989        C  0.34789086  0.67716066  0.78556792    -0.06700
C990        C  0.33836398  0.64497814  0.76840692    -0.17800
C991        C  0.34464546  0.63999152  0.73216291     0.10500
C992        C  0.35651829  0.66922962  0.71145417    -0.06600
C993        C  0.37845750  0.69305873  0.72951418    -0.17900
C994        C  0.37339905  0.69883868  0.76560522     0.10500
S995        S  0.33802193  0.59651443  0.71424398    -0.32800
S996        S  0.40242928  0.73310483  0.78153842    -0.32800
H997        H  0.40009387  0.75588040  0.75172408     0.28500
H998        H  0.36898428  0.59735029  0.69209642     0.28500
H999        H  0.32557398  0.62360139  0.78336106     0.19100
H1000       H  0.39624965  0.71049052  0.71431529     0.19100
C1001       C  0.33107533  0.72427753  0.83560186    -0.06700
C1002       C  0.29715037  0.74275736  0.84034635    -0.17800
C1003       C  0.29429444  0.77860526  0.84910539     0.10500
C1004       C  0.32406936  0.80171576  0.84238674    -0.06600
C1005       C  0.35836818  0.78352967  0.84540031    -0.17900
C1006       C  0.36152011  0.74547489  0.84624943     0.10500
S1007       S  0.26392512  0.78584476  0.88605743    -0.32800
S1008       S  0.40249587  0.72767562  0.86723537    -0.32800
H1009       H  0.40972928  0.69956613  0.84441750     0.28500
H1010       H  0.27012880  0.75264267  0.90283334     0.28500
H1011       H  0.27212282  0.72875686  0.84400557     0.19100
H1012       H  0.38204227  0.79850798  0.85245986     0.19100
C1013       C  0.22201525  0.64885522  0.67104067    -0.06700
C1014       C  0.24424016  0.64359006  0.64063143    -0.17800
C1015       C  0.28333829  0.64611068  0.64175375     0.10500
C1016       C  0.30038001  0.66535240  0.67000090    -0.06600
C1017       C  0.27613765  0.66889343  0.69950692    -0.17900
C1018       C  0.24299576  0.65090018  0.70180798     0.10500
S1019       S  0.30607723  0.61449793  0.61343997    -0.32800
S1020       S  0.25079610  0.61041994  0.72725260    -0.32800
H1021       H  0.26267813  0.62717870  0.75769610     0.28500
H1022       H  0.33243042  0.60384439  0.63828935     0.28500
H1023       H  0.23181937  0.63325550  0.61725290     0.19100
H1024       H  0.28648644  0.67497195  0.72481450     0.19100
C1025       C  0.17327388  0.69776549  0.66151128    -0.06700
C1026       C  0.15406246  0.72010756  0.68502407    -0.17800
C1027       C  0.13846851  0.75224331  0.67490569     0.10500
C1028       C  0.15969989  0.77383791  0.65248169    -0.06600
C1029       C  0.18004700  0.75452974  0.62671370    -0.17900
C1030       C  0.18373675  0.71630769  0.62913960     0.10500
S1031       S  0.09611454  0.76563724  0.69660095    -0.32800
S1032       S  0.20106213  0.69366368  0.59076774    -0.32800
H1033       H  0.20661220  0.72406153  0.56927594     0.28500
H1034       H  0.08752147  0.79251828  0.67178495     0.28500
H1035       H  0.15145992  0.71526617  0.71225489     0.19100
H1036       H  0.19371945  0.76926264  0.60575816     0.19100
C1037       C  0.20934939  0.82196043  0.65752560    -0.06700
C1038       C  0.22649566  0.85098199  0.63921773    -0.17800
C1039       C  0.26360911  0.86150932  0.64674845     0.10500
C1040       C  0.28382021  0.84395987  0.67532604    -0.06600
C1041       C  0.26122847  0.82224278  0.69564275    -0.17900
C1042       C  0.23396367  0.80346109  0.67968722     0.10500
S1043       S  0.27842712  0.90031550  0.62192786    -0.32800
S1044       S  0.24210182  0.75624839  0.67690847    -0.32800
H1045       H  0.25104571  0.75279772  0.71257826     0.28500
H1046       H  0.30244414  0.91353082  0.64677291     0.28500
H1047       H  0.21180480  0.86559820  0.61893934     0.19100
H1048       H  0.26807604  0.81476605  0.72152134     0.19100
C1049       C  0.15401511  0.82681376  0.77834932    -0.06700
C1050       C  0.12793504  0.84519566  0.75704013    -0.17800
C1051       C  0.12886824  0.84316261  0.71924906     0.10500
C1052       C  0.15551926  0.82011457  0.70189813    -0.06600
C1053       C  0.17381196  0.79679484  0.72531088    -0.17900
C1054       C  0.17743514  0.80203475  0.76053376     0.10500
S1055       S  0.09091794  0.86475297  0.69684292    -0.32800
S1056       S  0.21977313  0.78234021  0.77722910    -0.32800
H1057       H  0.20536554  0.75587728  0.79767982     0.28500
H1058       H  0.08436239  0.89122057  0.72209709     0.28500
H1059       H  0.10708610  0.86139984  0.76976955     0.19100
H1060       H  0.18787749  0.77376283  0.71606086     0.19100
C1061       C  0.19717963  0.84696355  0.82546005    -0.06700
C1062       C  0.21180874  0.85303893  0.85948878    -0.17800
C1063       C  0.25033158  0.86031610  0.86414403     0.10500
C1064       C  0.27582671  0.85218122  0.83589463    -0.06600
C1065       C  0.25864883  0.84666909  0.80379442    -0.17900
C1066       C  0.22264112  0.85645583  0.79793791     0.10500
S1067       S  0.26520631  0.87428007  0.90683681    -0.32800
S1068       S  0.21604891  0.87324582  0.75306123    -0.32800
H1069       H  0.18138962  0.88834336  0.75408102     0.28500
H1070       H  0.22995608  0.88290418  0.92000806     0.28500
H1071       H  0.19366331  0.85164512  0.88221601     0.19100
H1072       H  0.27358971  0.83667425  0.78144597     0.19100
C1073       C  0.15296779  0.65478427  0.78180789    -0.06700
C1074       C  0.12880294  0.67185704  0.75712459    -0.17800
C1075       C  0.12672148  0.66036227  0.72181161     0.10500
C1076       C  0.15867000  0.64433379  0.70730726    -0.06600
C1077       C  0.17141288  0.61783323  0.73092511    -0.17900
C1078       C  0.16842131  0.62225136  0.76806640     0.10500
S1079       S  0.08673246  0.67087357  0.69573497    -0.32800
S1080       S  0.18453622  0.58558503  0.79521179    -0.32800
H1081       H  0.15361830  0.58571193  0.81756785     0.28500
H1082       H  0.06482717  0.68298679  0.72401334     0.28500
H1083       H  0.11151800  0.69403959  0.76342944     0.19100
H1084       H  0.18327800  0.59362622  0.72086916     0.19100
C1085       C  0.28907627  0.67063778  0.82124462    -0.06700
C1086       C  0.26776684  0.68828547  0.79517173    -0.17800
C1087       C  0.22945018  0.68591867  0.79300152     0.10500
C1088       C  0.20851083  0.66614546  0.81834123    -0.06600
C1089       C  0.23039699  0.64178443  0.83871257    -0.17900
C1090       C  0.26964717  0.64325730  0.84021408     0.10500
S1091       S  0.21123000  0.70373895  0.75261320    -0.32800
S1092       S  0.29279742  0.60583074  0.86126058    -0.32800
H1093       H  0.26329838  0.59520876  0.88307129     0.28500
H1094       H  0.17852421  0.71826856  0.76562218     0.28500
H1095       H  0.28122178  0.70600247  0.77668956     0.19100
H1096       H  0.21748594  0.61958098  0.85182734     0.19100
C1097       C  0.15638230  0.71117267  0.82972022    -0.06700
C1098       C  0.12517324  0.73042828  0.81791254    -0.17800
C1099       C  0.12283817  0.76821030  0.81777549     0.10500
C1100       C  0.15248107  0.78894968  0.83060929    -0.06600
C1101       C  0.17615816  0.76989636  0.85319219    -0.17900
C1102       C  0.17772652  0.73186586  0.85394475     0.10500
S1103       S  0.08073111  0.78918475  0.80250050    -0.32800
S1104       S  0.20048028  0.71347619  0.89199438    -0.32800
H1105       H  0.23137043  0.70081450  0.87419460     0.28500
H1106       H  0.06688028  0.75939816  0.78526265     0.28500
H1107       H  0.10113924  0.71643313  0.81093059     0.19100
H1108       H  0.19326258  0.78461729  0.87036990     0.19100
C1109       C  0.14228926  0.64735515  0.84842834    -0.06700
C1110       C  0.15780589  0.63846816  0.88153485    -0.17800
C1111       C  0.13981998  0.61786249  0.90759999     0.10500
C1112       C  0.10450045  0.60465322  0.90096602    -0.06600
C1113       C  0.08730294  0.61586165  0.87005848    -0.17900
C1114       C  0.10422211  0.63786044  0.84495794     0.10500
S1115       S  0.16217708  0.61153497  0.94952176    -0.32800
S1116       S  0.07341397  0.65171702  0.81026574    -0.32800
H1117       H  0.04123862  0.65388759  0.83112831     0.28500
H1118       H  0.19798587  0.61991432  0.93815418     0.28500
H1119       H  0.18417953  0.64791854  0.88822670     0.19100
H1120       H  0.05959925  0.60724348  0.86511347     0.19100
C1121       C  0.09903227  0.89079945  0.59712033    -0.06700
C1122       C  0.09515410  0.85457854  0.59150338    -0.17800
C1123       C  0.11640211  0.82863946  0.60945035     0.10500
C1124       C  0.14267394  0.83937907  0.63553867    -0.06600
C1125       C  0.14662672  0.87663693  0.63968177    -0.17900
C1126       C  0.12576130  0.90205861  0.62075653     0.10500
S1127       S  0.10564439  0.78332739  0.59772620    -0.32800
S1128       S  0.13333712  0.94848877  0.62937919    -0.32800
H1129       H  0.12563040  0.96124378  0.59518735     0.28500
H1130       H  0.09308337  0.79069375  0.56337174     0.28500
H1131       H  0.07445920  0.84651085  0.57305593     0.19100
H1132       H  0.16522427  0.88622383  0.65937570     0.19100
C1133       C  0.36955218  0.66418140  0.64509271    -0.06700
C1134       C  0.40253247  0.64697347  0.65649641    -0.17800
C1135       C  0.42527103  0.62711142  0.63421628     0.10500
C1136       C  0.41534751  0.62346949  0.59869812    -0.06600
C1137       C  0.38718998  0.64587078  0.58541335    -0.17900
C1138       C  0.36528285  0.66741486  0.60768492     0.10500
S1139       S  0.46640909  0.60648312  0.65254180    -0.32800
S1140       S  0.33258910  0.69692218  0.58551000    -0.32800
H1141       H  0.31171584  0.70865910  0.61421732     0.28500
H1142       H  0.46215601  0.61765138  0.68755746     0.28500
H1143       H  0.41119859  0.64814859  0.68341108     0.19100
H1144       H  0.38142560  0.64597329  0.55747323     0.19100
C1145       C  0.15874910  0.63358150  0.64159422    -0.06700
C1146       C  0.12864730  0.64960949  0.62337506    -0.17800
C1147       C  0.10689668  0.63104336  0.60004989     0.10500
C1148       C  0.11447090  0.59497001  0.59375230    -0.06600
C1149       C  0.14439805  0.57842650  0.61046732    -0.17900
C1150       C  0.16617468  0.59668354  0.63461867     0.10500
S1151       S  0.06891325  0.65484223  0.57984038    -0.32800
S1152       S  0.20184456  0.57084013  0.65642827    -0.32800
H1153       H  0.20243149  0.54159462  0.63370152     0.28500
H1154       H  0.06936806  0.63544556  0.54844219     0.28500
H1155       H  0.12053549  0.67698238  0.62776684     0.19100
H1156       H  0.14937746  0.55031365  0.60600865     0.19100
C1157       C  0.33844326  0.86659524  0.86543837    -0.06700
C1158       C  0.34167415  0.90364825  0.85839842    -0.17800
C1159       C  0.36417467  0.92556921  0.87781010     0.10500
C1160       C  0.38342795  0.91116108  0.90662379    -0.06600
C1161       C  0.37739299  0.87590523  0.91704244    -0.17900
C1162       C  0.35451228  0.85359192  0.89777942     0.10500
S1163       S  0.36760006  0.97167940  0.86381293    -0.32800
S1164       S  0.34249043  0.81198281  0.91943573    -0.32800
H1165       H  0.36909837  0.81168708  0.94603017     0.28500
H1166       H  0.37290383  0.98559991  0.89748910     0.28500
H1167       H  0.32711630  0.91625862  0.83706301     0.19100
H1168       H  0.39049659  0.86605457  0.94084471     0.19100
C1169       C  0.35408237  0.65913445  0.85146398    -0.06700
C1170       C  0.38173040  0.63519276  0.83896810    -0.17800
C1171       C  0.40125301  0.61163849  0.86070902     0.10500
C1172       C  0.39782260  0.61371401  0.89769242    -0.06600
C1173       C  0.37135750  0.63776687  0.91127853    -0.17900
C1174       C  0.34911716  0.65979244  0.88893761     0.10500
S1175       S  0.42681211  0.57713278  0.83810679    -0.32800
S1176       S  0.31377456  0.68723743  0.90898734    -0.32800
H1177       H  0.32422613  0.68152745  0.94422458     0.28500
H1178       H  0.41473946  0.54965625  0.86093712     0.28500
H1179       H  0.38869440  0.63313440  0.81149912     0.19100
H1180       H  0.36780382  0.63895526  0.93958735     0.19100
C1181       C  0.12895467  0.85333766  0.84118716    -0.06700
C1182       C  0.11211207  0.83792471  0.87201242    -0.17800
C1183       C  0.09188226  0.85773866  0.89673396     0.10500
C1184       C  0.08665425  0.89447805  0.89147384    -0.06600
C1185       C  0.10141242  0.91039055  0.86108302    -0.17900
C1186       C  0.12345424  0.89111563  0.83695395     0.10500
S1187       S  0.07416258  0.83448213  0.93516534    -0.32800
S1188       S  0.14614069  0.91725731  0.80349634    -0.32800
H1189       H  0.13903930  0.95134690  0.81711187     0.28500
H1190       H  0.04274969  0.85629506  0.93959622     0.28500
H1191       H  0.11559056  0.81009971  0.87889065     0.19100
H1192       H  0.09716139  0.93883101  0.85731698     0.19100
C1193       C  0.35073071  0.86316186  0.65653022    -0.06700
C1194       C  0.37288631  0.89132031  0.66858790    -0.17800
C1195       C  0.39241235  0.91407715  0.64596239     0.10500
C1196       C  0.39202765  0.90896338  0.60932466    -0.06600
C1197       C  0.37146010  0.88087087  0.59645161    -0.17900
C1198       C  0.35120302  0.85786063  0.61888431     0.10500
S1199       S  0.41545805  0.95075672  0.66596132    -0.32800
S1200       S  0.32649118  0.82400334  0.59534088    -0.32800
H1201       H  0.30671737  0.80757518  0.62259342     0.28500
H1202       H  0.40392564  0.97615537  0.64052057     0.28500
H1203       H  0.37471161  0.89748805  0.69612228     0.19100
H1204       H  0.37125481  0.87666474  0.56826337     0.19100
C1205       C  0.91323380  0.43148760  0.08372925     0.41900
N1206       N  0.95371988  0.46897570  0.06555081     0.00800
C1207       C  0.95580522  0.07497171  0.41373460    -0.07100
H1208       H  0.95783519  0.44034717  0.38913332     0.06300
C1209       C  0.58178807  0.42947978  0.45052530    -0.07400
Co1210     Co  0.92960421  0.51049448  0.50051194     0.74200
N1211       N  0.95285016  0.47064391  0.43686270    -0.26600
Co1212     Co  0.49787063  0.50494984  0.43656687     0.74100
C1213       C  0.56688967  0.41706806  0.41718854     0.42000
N1214       N  0.56130395  0.45654449  0.03892900     0.00400
N1215       N  0.53458133  0.46168062  0.43550382     0.00500
N1216       N  0.90804525  0.07476552  0.45213132    -0.47500
H1217       H  0.87513196  0.44586847  0.03726792     0.06300
N1218       N  0.92735738  0.47197635  0.46190128     0.00800
N1219       N  0.54282078  0.03985120  0.43737206     0.00500
C1220       C  0.58458868  0.07773390  0.42258405     0.42100
N1221       N  0.53662093  0.46017176  0.06449425    -0.26100
C1222       C  0.91551413  0.07935792  0.04510980    -0.07000
N1223       N  0.94609688  0.44562740  0.09106823    -0.47200
N1224       N  0.55135452  0.06479528  0.41381993    -0.47400
C1225       C  0.93181586  0.09556358  0.07601154     0.41900
N1226       N  0.93308145  0.04986317  0.46053036     0.00800
N1227       N  0.54333744  0.03765952  0.06267159    -0.26100
N1228       N  0.92763153  0.47160450  0.04166437    -0.26600
N1229       N  0.56948209  0.03405016  0.03857534     0.00400
H1230       H  0.53886188  0.06909202  0.10970147     0.06300
H1231       H  0.62125633  0.05760621  0.46872060     0.06300
N1232       N  0.96057431  0.04874177  0.43765867    -0.23100
N1233       N  0.56003130  0.45721531  0.45979442    -0.26300
N1234       N  0.96149384  0.04710342  0.06345473     0.00800
C1235       C  0.90850978  0.43246988  0.42671556     0.42200
C1236       C  0.54424913  0.43597445  0.09001080    -0.07500
N1237       N  0.56867120  0.03514726  0.46103875    -0.26300
H1238       H  0.60654490  0.42086751  0.46390432     0.06300
N1239       N  0.89998720  0.44991997  0.45655615    -0.47500
H1240       H  0.53039297  0.43386391  0.11529641     0.06300
C1241       C  0.58971181  0.07320488  0.07347570     0.42000
C1242       C  0.90093736  0.44858452  0.05074505    -0.07000
Co1243     Co  0.99838903  0.00370664  0.06544473     0.73800
N1244       N  0.58607340  0.43119947  0.04568615    -0.47200
C1245       C  0.92021430  0.09167446  0.42242888     0.42300
N1246       N  0.95988776  0.07371278  0.08583437    -0.47200
Co1247     Co  0.56547526  0.99598968  0.99941411     0.73900
C1248       C  0.59611423  0.05756126  0.45405218    -0.07500
C1249       C  0.94316882  0.44642029  0.41328242    -0.07100
N1250       N  0.93558965  0.04959461  0.03947981    -0.26600
N1251       N  0.53824733  0.43890795  0.40931971    -0.47400
H1252       H  0.97350812  0.07942308  0.39110166     0.06300
C1253       C  0.55360920  0.06202392  0.08587000    -0.07500
Cl1254     Cl  0.49817081  0.00365970  0.00005097    -0.50500
C1255       C  0.57686601  0.41678528  0.07722977     0.42000
H1256       H  0.89183937  0.08792383  0.03002731     0.06200
N1257       N  0.59818879  0.05435582  0.04446901    -0.47200
C1258       C  0.66466718  0.16916418  0.31859226    -0.03100
C1259       C  0.65719086  0.32934949  0.31927257    -0.03100
C1260       C  0.66583548  0.31413755  0.16091097    -0.03100
C1261       C  0.67950727  0.15556736  0.16933798    -0.03100
C1262       C  0.83129786  0.18344295  0.32402488    -0.03100
C1263       C  0.84233547  0.18028668  0.17295618    -0.03100
C1264       C  0.82651301  0.34204354  0.18453645    -0.03100
C1265       C  0.81857975  0.34426585  0.33697247    -0.03100
C1266       C  0.83468514  0.35497456  0.22344967    -0.06700
C1267       C  0.86508121  0.34085650  0.24274306    -0.17800
C1268       C  0.86598592  0.34221036  0.28017841     0.10500
C1269       C  0.83563053  0.35754677  0.29896325    -0.06600
C1270       C  0.81739866  0.38465034  0.27832684    -0.17900
C1271       C  0.81537588  0.38262586  0.24114825     0.10500
S1272       S  0.91011953  0.33409547  0.29969943    -0.32800
S1273       S  0.78923725  0.41631063  0.21758171    -0.32800
H1274       H  0.78447537  0.43993541  0.24572044     0.28500
H1275       H  0.90303963  0.35543070  0.32918023     0.28500
H1276       H  0.88688622  0.32665926  0.22900551     0.19100
H1277       H  0.79852095  0.40308663  0.29082113     0.19100
C1278       C  0.84191932  0.22327408  0.17227215    -0.06700
C1279       C  0.82222547  0.23921453  0.19986711    -0.17800
C1280       C  0.82401838  0.27466360  0.20895725     0.10500
C1281       C  0.83769092  0.30038631  0.18418559    -0.06600
C1282       C  0.86260001  0.28529205  0.15940044    -0.17900
C1283       C  0.86595096  0.24781890  0.15379238     0.10500
S1284       S  0.81341275  0.28219604  0.25514383    -0.32800
S1285       S  0.90557439  0.23453532  0.12789162    -0.32800
H1286       H  0.90594940  0.26494017  0.10562608     0.28500
H1287       H  0.82244188  0.24863245  0.26844525     0.28500
H1288       H  0.80924840  0.22308658  0.21925692     0.19100
H1289       H  0.88115133  0.30256883  0.14518813     0.19100
C1290       C  0.84808485  0.17783834  0.28525213    -0.06700
C1291       C  0.83854817  0.14561796  0.26816501    -0.17800
C1292       C  0.84467685  0.14050722  0.23195555     0.10500
C1293       C  0.85679549  0.16951048  0.21109543    -0.06600
C1294       C  0.87879241  0.19330507  0.22901528    -0.17900
C1295       C  0.87310560  0.19986987  0.26489650     0.10500
S1296       S  0.83859115  0.09680662  0.21443918    -0.32800
S1297       S  0.89998098  0.23643900  0.27948013    -0.32800
H1298       H  0.89716803  0.25772622  0.24865344     0.28500
H1299       H  0.86966627  0.09802360  0.19241793     0.28500
H1300       H  0.82584479  0.12423258  0.28317898     0.19100
H1301       H  0.89650467  0.21063508  0.21359440     0.19100
C1302       C  0.83096281  0.22466731  0.33545751    -0.06700
C1303       C  0.79700909  0.24290975  0.34079206    -0.17800
C1304       C  0.79409837  0.27872706  0.34963857     0.10500
C1305       C  0.82371169  0.30196353  0.34259807    -0.06600
C1306       C  0.85814697  0.28390615  0.34523984    -0.17900
C1307       C  0.86150002  0.24585601  0.34574240     0.10500
S1308       S  0.76377977  0.28599013  0.38666166    -0.32800
S1309       S  0.90362793  0.22778538  0.36430914    -0.32800
H1310       H  0.90912625  0.19979756  0.34089396     0.28500
H1311       H  0.76867583  0.25231602  0.40282110     0.28500
H1312       H  0.77212002  0.22870028  0.34464368     0.19100
H1313       H  0.88188843  0.29893816  0.35193780     0.19100
C1314       C  0.72284755  0.14860005  0.17035493    -0.06700
C1315       C  0.74533684  0.14256522  0.14028657    -0.17800
C1316       C  0.78436082  0.14512978  0.14184632     0.10500
C1317       C  0.80081835  0.16540541  0.16972327    -0.06600
C1318       C  0.77630189  0.16952978  0.19889763    -0.17900
C1319       C  0.74339478  0.15127456  0.20125756     0.10500
S1320       S  0.80751131  0.11232590  0.11507866    -0.32800
S1321       S  0.75141026  0.11104983  0.22704766    -0.32800
H1322       H  0.76308053  0.12810357  0.25737765     0.28500
H1323       H  0.83467657  0.10368640  0.13973258     0.28500
H1324       H  0.73316153  0.13196275  0.11688926     0.19100
H1325       H  0.78647330  0.17585279  0.22423734     0.19100
C1326       C  0.67449385  0.19776118  0.16065560    -0.06700
C1327       C  0.65468781  0.21982854  0.18393796    -0.17800
C1328       C  0.63882659  0.25176550  0.17365575     0.10500
C1329       C  0.66022953  0.27377770  0.15186863    -0.06600
C1330       C  0.68149140  0.25487139  0.12642729    -0.17900
C1331       C  0.68563261  0.21664977  0.12867850     0.10500
S1332       S  0.59588020  0.26450635  0.19455072    -0.32800
S1333       S  0.70471796  0.19447777  0.09076845    -0.32800
H1334       H  0.71012177  0.22505694  0.06949010     0.28500
H1335       H  0.58708629  0.29062012  0.16900967     0.28500
H1336       H  0.65193635  0.21500527  0.21115979     0.19100
H1337       H  0.69558057  0.26991057  0.10594859     0.19100
C1338       C  0.70910368  0.32247202  0.15823314    -0.06700
C1339       C  0.72594125  0.35172246  0.14001125    -0.17800
C1340       C  0.76295199  0.36248257  0.14750979     0.10500
C1341       C  0.78328384  0.34495532  0.17599790    -0.06600
C1342       C  0.76081617  0.32328208  0.19643851    -0.17900
C1343       C  0.73372852  0.30423913  0.18055844     0.10500
S1344       S  0.77756438  0.40135662  0.12266332    -0.32800
S1345       S  0.74255893  0.25716970  0.17749989    -0.32800
H1346       H  0.75153264  0.25360826  0.21314011     0.28500
H1347       H  0.80164294  0.41462365  0.14741486     0.28500
H1348       H  0.71110152  0.36629526  0.11979596     0.19100
H1349       H  0.76771174  0.31601907  0.22234471     0.19100
C1350       C  0.65348335  0.32615587  0.27835635    -0.06700
C1351       C  0.62692329  0.34403191  0.25715254    -0.17800
C1352       C  0.62752470  0.34164383  0.21934564     0.10500
C1353       C  0.65481338  0.31927049  0.20202439    -0.06600
C1354       C  0.67321345  0.29602200  0.22537673    -0.17900
C1355       C  0.67708542  0.30156579  0.26052755     0.10500
S1356       S  0.58868724  0.36145529  0.19659956    -0.32800
S1357       S  0.71969940  0.28242304  0.27713848    -0.32800
H1358       H  0.70565531  0.25563524  0.29741089     0.28500
H1359       H  0.57396933  0.38108267  0.22481059     0.28500
H1360       H  0.60613462  0.36015035  0.27005279     0.19100
H1361       H  0.68750539  0.27315856  0.21603925     0.19100
C1362       C  0.69660779  0.34644071  0.32553621    -0.06700
C1363       C  0.71115322  0.35247516  0.35961150    -0.17800
C1364       C  0.74960445  0.36006857  0.36434624     0.10500
C1365       C  0.77518894  0.35226650  0.33607422    -0.06600
C1366       C  0.75810356  0.34703882  0.30387396    -0.17900
C1367       C  0.72195995  0.35640309  0.29806679     0.10500
S1368       S  0.76441495  0.37414354  0.40706910    -0.32800
S1369       S  0.71524815  0.37347908  0.25327798    -0.32800
H1370       H  0.67985187  0.38689421  0.25353197     0.28500
H1371       H  0.72911914  0.37829637  0.42202851     0.28500
H1372       H  0.69294207  0.35086941  0.38227209     0.19100
H1373       H  0.77314686  0.33741532  0.28144941     0.19100
C1374       C  0.65342110  0.15440170  0.28039923    -0.06700
C1375       C  0.62924735  0.17148736  0.25568845    -0.17800
C1376       C  0.62735458  0.16000242  0.22030781     0.10500
C1377       C  0.65937348  0.14401096  0.20597080    -0.06600
C1378       C  0.67197004  0.11746655  0.22959608    -0.17900
C1379       C  0.66881953  0.12184889  0.26668925     0.10500
S1380       S  0.58762318  0.17036343  0.19381273    -0.32800
S1381       S  0.68464714  0.08507375  0.29382823    -0.32800
H1382       H  0.65261123  0.08400254  0.31464511     0.28500
H1383       H  0.56562976  0.18298960  0.22179975     0.28500
H1384       H  0.61180357  0.19355109  0.26210322     0.19100
H1385       H  0.68408508  0.09334333  0.21967449     0.19100
C1386       C  0.78912277  0.17105332  0.32075355    -0.06700
C1387       C  0.76782081  0.18893128  0.29483347    -0.17800
C1388       C  0.72960442  0.18610296  0.29226949     0.10500
C1389       C  0.70876788  0.16572982  0.31713855    -0.06600
C1390       C  0.73070604  0.14122290  0.33725055    -0.17900
C1391       C  0.76990500  0.14307642  0.33911712     0.10500
S1392       S  0.71142196  0.20401297  0.25191375    -0.32800
S1393       S  0.79344726  0.10579722  0.36016240    -0.32800
H1394       H  0.76278761  0.08989783  0.37646450     0.28500
H1395       H  0.67859428  0.21832083  0.26491216     0.28500
H1396       H  0.78121029  0.20691572  0.27659462     0.19100
H1397       H  0.71778831  0.11888974  0.35009381     0.19100
C1398       C  0.65648470  0.21039295  0.32893796    -0.06700
C1399       C  0.62517063  0.22957067  0.31729074    -0.17800
C1400       C  0.62253427  0.26736477  0.31767015     0.10500
C1401       C  0.65209284  0.28821491  0.33057115    -0.06600
C1402       C  0.67603776  0.26908139  0.35281383    -0.17900
C1403       C  0.67779262  0.23104419  0.35327880     0.10500
S1404       S  0.58013794  0.28821931  0.30301819    -0.32800
S1405       S  0.70063607  0.21262965  0.39127649    -0.32800
H1406       H  0.73123201  0.19941459  0.37343354     0.28500
H1407       H  0.56628576  0.25853389  0.28563046     0.28500
H1408       H  0.60131982  0.21540091  0.30999004     0.19100
H1409       H  0.69330503  0.28373600  0.36990234     0.19100
C1410       C  0.64289708  0.14615435  0.34691296    -0.06700
C1411       C  0.65830473  0.13753921  0.38010679    -0.17800
C1412       C  0.64055768  0.11658706  0.40604401     0.10500
C1413       C  0.60560477  0.10262977  0.39909308    -0.06600
C1414       C  0.58868447  0.11299680  0.36775347    -0.17900
C1415       C  0.60544066  0.13513635  0.34268378     0.10500
S1416       S  0.66279714  0.11031522  0.44808966    -0.32800
S1417       S  0.57423874  0.14977545  0.30865081    -0.32800
H1418       H  0.55681447  0.11682921  0.30478326     0.28500
H1419       H  0.69547525  0.12851336  0.44035690     0.28500
H1420       H  0.68456293  0.14722671  0.38675539     0.19100
H1421       H  0.56085161  0.10462310  0.36305814     0.19100
C1422       C  0.60067647  0.39160864  0.09700575    -0.06700
C1423       C  0.59794019  0.35557370  0.08980926    -0.17800
C1424       C  0.61828143  0.32932234  0.10823831     0.10500
C1425       C  0.64295640  0.33958815  0.13584741    -0.06600
C1426       C  0.64605728  0.37671386  0.14144677    -0.17900
C1427       C  0.62562963  0.40246402  0.12255955     0.10500
S1428       S  0.60834095  0.28420928  0.09524494    -0.32800
S1429       S  0.63178586  0.44861318  0.13351207    -0.32800
H1430       H  0.62162604  0.46347655  0.10075619     0.28500
H1431       H  0.59720712  0.29211408  0.06053699     0.28500
H1432       H  0.57853525  0.34786389  0.06996806     0.19100
H1433       H  0.66373511  0.38583993  0.16213423     0.19100
C1434       C  0.86963609  0.16493460  0.14472156    -0.06700
C1435       C  0.90297769  0.14829708  0.15594257    -0.17800
C1436       C  0.92568200  0.12847967  0.13364023     0.10500
C1437       C  0.91524173  0.12402347  0.09838325    -0.06600
C1438       C  0.88657222  0.14580561  0.08513689    -0.17900
C1439       C  0.86462121  0.16734833  0.10735055     0.10500
S1440       S  0.96693830  0.10829929  0.15205215    -0.32800
S1441       S  0.83059110  0.19537651  0.08518305    -0.32800
H1442       H  0.81157806  0.20918084  0.11413201     0.28500
H1443       H  0.96923753  0.12987777  0.18189900     0.28500
H1444       H  0.91180546  0.14940458  0.18283376     0.19100
H1445       H  0.88032375  0.14529577  0.05731786     0.19100
C1446       C  0.66018105  0.13357617  0.14029245    -0.06700
C1447       C  0.63089168  0.14994742  0.12116407    -0.17800
C1448       C  0.60909553  0.13135327  0.09796181     0.10500
C1449       C  0.61560543  0.09491619  0.09306135    -0.06600
C1450       C  0.64481767  0.07800932  0.11048284    -0.17900
C1451       C  0.66687007  0.09633439  0.13427264     0.10500
S1452       S  0.57233646  0.15555985  0.07616958    -0.32800
S1453       S  0.70256865  0.07046443  0.15613307    -0.32800
H1454       H  0.69581832  0.03720134  0.14114351     0.28500
H1455       H  0.57223180  0.13472255  0.04570325     0.28500
H1456       H  0.62325383  0.17754893  0.12487119     0.19100
H1457       H  0.64921806  0.04974617  0.10646557     0.19100
C1458       C  0.83759153  0.36672548  0.36585845    -0.06700
C1459       C  0.84012924  0.40389565  0.35924129    -0.17800
C1460       C  0.86249435  0.42588102  0.37869112     0.10500
C1461       C  0.88232372  0.41132049  0.40706303    -0.06600
C1462       C  0.87688246  0.37590236  0.41718271    -0.17900
C1463       C  0.85407522  0.35355904  0.39794067     0.10500
S1464       S  0.86506164  0.47221386  0.36521062    -0.32800
S1465       S  0.84258362  0.31175358  0.41949412    -0.32800
H1466       H  0.87045959  0.31085602  0.44487540     0.28500
H1467       H  0.87167815  0.48586347  0.39875428     0.28500
H1468       H  0.82509021  0.41653728  0.33823484     0.19100
H1469       H  0.89032865  0.36596174  0.44077650     0.19100
C1470       C  0.85374400  0.15960571  0.35136997    -0.06700
C1471       C  0.88059655  0.13470713  0.33911267    -0.17800
C1472       C  0.89933523  0.11081045  0.36117386     0.10500
C1473       C  0.89658197  0.11391584  0.39807890    -0.06600
C1474       C  0.87091037  0.13883077  0.41143893    -0.17900
C1475       C  0.84892797  0.16082933  0.38887035     0.10500
S1476       S  0.92268971  0.07437979  0.33939734    -0.32800
S1477       S  0.81390453  0.18863497  0.40885320    -0.32800
H1478       H  0.82776990  0.18709615  0.44330903     0.28500
H1479       H  0.91080352  0.04840939  0.36401423     0.28500
H1480       H  0.88724776  0.13194906  0.31166065     0.19100
H1481       H  0.86759773  0.14059259  0.43974009     0.19100
C1482       C  0.62835391  0.35276985  0.34098712    -0.06700
C1483       C  0.61066297  0.33729122  0.37131022    -0.17800
C1484       C  0.59020283  0.35714240  0.39586893     0.10500
C1485       C  0.58580600  0.39405578  0.39096809    -0.06600
C1486       C  0.60144692  0.41004153  0.36104187    -0.17900
C1487       C  0.62343984  0.39064877  0.33697269     0.10500
S1488       S  0.57127007  0.33356447  0.43361127    -0.32800
S1489       S  0.64703363  0.41669206  0.30400161    -0.32800
H1490       H  0.63672112  0.45100543  0.31516738     0.28500
H1491       H  0.54203625  0.35745724  0.44040233     0.28500
H1492       H  0.61359053  0.30933882  0.37788330     0.19100
H1493       H  0.59790621  0.43860292  0.35767147     0.19100
C1494       C  0.84989179  0.36401669  0.15660568    -0.06700
C1495       C  0.87185055  0.39245900  0.16833466    -0.17800
C1496       C  0.89140922  0.41493601  0.14543163     0.10500
C1497       C  0.89150613  0.40903645  0.10891260    -0.06600
C1498       C  0.87087673  0.38086023  0.09634524    -0.17900
C1499       C  0.85021607  0.35841422  0.11898227     0.10500
S1500       S  0.91375987  0.45236651  0.16482917    -0.32800
S1501       S  0.82487980  0.32480437  0.09567782    -0.32800
H1502       H  0.80530470  0.30845276  0.12311054     0.28500
H1503       H  0.90273969  0.47698718  0.13844787     0.28500
H1504       H  0.87340181  0.39908620  0.19578037     0.19100
H1505       H  0.87083741  0.37622056  0.06822653     0.19100
C1506       C  0.91304790  0.43117042  0.58323042     0.41900
N1507       N  0.95295290  0.46934495  0.56520619     0.00800
C1508       C  0.95629224  0.07369307  0.91379945    -0.07100
H1509       H  0.95894911  0.44070866  0.88952688     0.06300
C1510       C  0.58289407  0.42992676  0.94976330    -0.07400
Co1511     Co  0.92997941  0.51063987  0.00103352     0.74200
N1512       N  0.95334878  0.47118189  0.93709507    -0.26600
Co1513     Co  0.49862079  0.50510459  0.93590037     0.74100
C1514       C  0.56809979  0.41747738  0.91639064     0.42000
N1515       N  0.56075087  0.45650383  0.53952775     0.00400
N1516       N  0.53546472  0.46186474  0.93479505     0.00500
N1517       N  0.90883975  0.07402962  0.95258853    -0.47500
H1518       H  0.87489315  0.44500624  0.53659589     0.06300
N1519       N  0.92784976  0.47217161  0.96214520     0.00800
N1520       N  0.54297519  0.03984709  0.93703868     0.00500
C1521       C  0.58434270  0.07840669  0.92288132     0.42100
N1522       N  0.53621577  0.46025255  0.56519415    -0.26100
C1523       C  0.91506441  0.07920681  0.54476810    -0.07000
N1524       N  0.94566936  0.44577018  0.59057417    -0.47200
N1525       N  0.55134580  0.06512899  0.91377875    -0.47400
C1526       C  0.93158794  0.09515646  0.57569111     0.41900
N1527       N  0.93390189  0.04923678  0.96108451     0.00800
N1528       N  0.54336697  0.03726985  0.56309300    -0.26100
N1529       N  0.92690958  0.47166834  0.54127814    -0.26600
N1530       N  0.56952149  0.03378149  0.53898084     0.00400
H1531       H  0.53852353  0.06894434  0.60993870     0.06300
H1532       H  0.62069164  0.05863548  0.96938886     0.06300
N1533       N  0.96122820  0.04782841  0.93804352    -0.23100
N1534       N  0.56091143  0.45748438  0.95910736    -0.26300
N1535       N  0.96085843  0.04653839  0.56292997     0.00800
C1536       C  0.90970684  0.43209886  0.92705768     0.42200
C1537       C  0.54375754  0.43591456  0.59062597    -0.07500
N1538       N  0.56869919  0.03527613  0.96084379    -0.26300
H1539       H  0.60769074  0.42143839  0.96314836     0.06300
N1540       N  0.90088659  0.44959167  0.95685129    -0.47500
H1541       H  0.52996605  0.43381071  0.61594635     0.06300
C1542       C  0.58938071  0.07335491  0.57377797     0.42000
C1543       C  0.90051904  0.44822659  0.55025778    -0.07000
Co1544     Co  0.99765488  0.00301504  0.56478549     0.73800
N1545       N  0.58535781  0.43098508  0.54612863    -0.47200
C1546       C  0.92081361  0.09048854  0.92260786     0.42300
N1547       N  0.95948776  0.07305805  0.58538189    -0.47200
Co1548     Co  0.56546685  0.99576170  0.49953990     0.73900
C1549       C  0.59585942  0.05813375  0.95428341    -0.07500
C1550       C  0.94411736  0.44667254  0.91361223    -0.07100
N1551       N  0.93492426  0.04933521  0.53898860    -0.26600
N1552       N  0.53931484  0.43916362  0.90855978    -0.47400
H1553       H  0.97378063  0.07778281  0.89094776     0.06300
C1554       C  0.55340977  0.06182583  0.58620060    -0.07500
Cl1555     Cl  0.49813094  0.00354507  0.50043155    -0.50500
C1556       C  0.57620673  0.41653520  0.57765978     0.42000
H1557       H  0.89146885  0.08805420  0.52971324     0.06200
N1558       N  0.59802450  0.05441364  0.54482049    -0.47200
C1559       C  0.66498141  0.16935545  0.81895834    -0.03100
C1560       C  0.65830474  0.32941331  0.81862521    -0.03100
C1561       C  0.66728228  0.31440579  0.65998956    -0.03100
C1562       C  0.67964666  0.15583784  0.66951764    -0.03100
C1563       C  0.83165299  0.18214546  0.82480879    -0.03100
C1564       C  0.84285353  0.17909309  0.67377110    -0.03100
C1565       C  0.82787242  0.34085501  0.68444278    -0.03100
C1566       C  0.81975872  0.34333519  0.83700300    -0.03100
C1567       C  0.83591474  0.35390346  0.72334705    -0.06700
C1568       C  0.86631997  0.33987483  0.74268643    -0.17800
C1569       C  0.86714185  0.34116740  0.78012865     0.10500
C1570       C  0.83673751  0.35644384  0.79888817    -0.06600
C1571       C  0.81848015  0.38351405  0.77822027    -0.17900
C1572       C  0.81637436  0.38142192  0.74104642     0.10500
S1573       S  0.91112663  0.33258276  0.79975872    -0.32800
S1574       S  0.79014403  0.41503561  0.71741277    -0.32800
H1575       H  0.78057112  0.43631109  0.74635754     0.28500
H1576       H  0.90419963  0.35399381  0.82921268     0.28500
H1577       H  0.88815597  0.32567980  0.72898668     0.19100
H1578       H  0.79971742  0.40199781  0.79078961     0.19100
C1579       C  0.84294109  0.22200414  0.67307223    -0.06700
C1580       C  0.82309633  0.23807083  0.70046895    -0.17800
C1581       C  0.82511570  0.27356641  0.70933541     0.10500
C1582       C  0.83888702  0.29912405  0.68440705    -0.06600
C1583       C  0.86396480  0.28381967  0.65989779    -0.17900
C1584       C  0.86750442  0.24625063  0.65486280     0.10500
S1585       S  0.81465142  0.28113049  0.75551148    -0.32800
S1586       S  0.90813168  0.23231436  0.63065393    -0.32800
H1587       H  0.91257046  0.26380147  0.61048020     0.28500
H1588       H  0.82531756  0.24787912  0.76875022     0.28500
H1589       H  0.80994049  0.22214463  0.71976373     0.19100
H1590       H  0.88253592  0.30103418  0.64566926     0.19100
C1591       C  0.84825969  0.17627931  0.78600910    -0.06700
C1592       C  0.83813751  0.14432550  0.76874463    -0.17800
C1593       C  0.84471119  0.13913315  0.73261082     0.10500
C1594       C  0.85722154  0.16810212  0.71191532    -0.06600
C1595       C  0.87944200  0.19162688  0.73006445    -0.17900
C1596       C  0.87471307  0.19715863  0.76627740     0.10500
S1597       S  0.83833820  0.09551813  0.71495670    -0.32800
S1598       S  0.90310835  0.23206661  0.78201306    -0.32800
H1599       H  0.93254051  0.22770979  0.75801725     0.28500
H1600       H  0.86915597  0.09669561  0.69261178     0.28500
H1601       H  0.82489466  0.12314122  0.78359775     0.19100
H1602       H  0.89657799  0.20963539  0.71482787     0.19100
C1603       C  0.83150966  0.22349772  0.83613455    -0.06700
C1604       C  0.79764586  0.24197528  0.84137920    -0.17800
C1605       C  0.79493724  0.27789015  0.85004715     0.10500
C1606       C  0.82464709  0.30098217  0.84274492    -0.06600
C1607       C  0.85897356  0.28274460  0.84532396    -0.17900
C1608       C  0.86205920  0.24468255  0.84642466     0.10500
S1609       S  0.76500766  0.28537711  0.88732382    -0.32800
S1610       S  0.90308352  0.22684251  0.86731650    -0.32800
H1611       H  0.90958454  0.19807329  0.84509125     0.28500
H1612       H  0.77063915  0.25198524  0.90388717     0.28500
H1613       H  0.77270793  0.22788777  0.84542292     0.19100
H1614       H  0.88276351  0.29769306  0.85204030     0.19100
C1615       C  0.72297524  0.14860902  0.67061609    -0.06700
C1616       C  0.74546191  0.14287866  0.64050325    -0.17800
C1617       C  0.78450793  0.14500685  0.64217343     0.10500
C1618       C  0.80117150  0.16464195  0.67037842    -0.06600
C1619       C  0.77665373  0.16864324  0.69957410    -0.17900
C1620       C  0.74352507  0.15065811  0.70161863     0.10500
S1621       S  0.80732960  0.11246211  0.61488139    -0.32800
S1622       S  0.75109828  0.11008535  0.72698094    -0.32800
H1623       H  0.76243909  0.12683078  0.75762985     0.28500
H1624       H  0.83394952  0.10275668  0.63975526     0.28500
H1625       H  0.73324068  0.13254612  0.61701954     0.19100
H1626       H  0.78675915  0.17483098  0.72492946     0.19100
C1627       C  0.67495168  0.19797798  0.66053725    -0.06700
C1628       C  0.65584975  0.22040538  0.68398462    -0.17800
C1629       C  0.64001054  0.25232449  0.67361986     0.10500
C1630       C  0.66129046  0.27400952  0.65139279    -0.06600
C1631       C  0.68194036  0.25475395  0.62575055    -0.17900
C1632       C  0.68576402  0.21650728  0.62825007     0.10500
S1633       S  0.59739864  0.26550788  0.69492279    -0.32800
S1634       S  0.70397364  0.19383958  0.59025171    -0.32800
H1635       H  0.71190131  0.22431920  0.56962335     0.28500
H1636       H  0.58872768  0.29205987  0.66980044     0.28500
H1637       H  0.65353442  0.21574195  0.71128678     0.19100
H1638       H  0.69576096  0.26953367  0.60491796     0.19100
C1639       C  0.71067862  0.32219368  0.65703097    -0.06700
C1640       C  0.72778475  0.35152917  0.63921781    -0.17800
C1641       C  0.76478483  0.36201666  0.64712207     0.10500
C1642       C  0.78477190  0.34406848  0.67562006    -0.06600
C1643       C  0.76210126  0.32222721  0.69564018    -0.17900
C1644       C  0.73519492  0.30350934  0.67915699     0.10500
S1645       S  0.77975712  0.40109171  0.62276057    -0.32800
S1646       S  0.74386612  0.25643044  0.67579706    -0.32800
H1647       H  0.75216022  0.25242386  0.71157161     0.28500
H1648       H  0.80384469  0.41400966  0.64767515     0.28500
H1649       H  0.71317811  0.36638451  0.61904807     0.19100
H1650       H  0.76908054  0.31412955  0.72128012     0.19100
C1651       C  0.65482397  0.32631487  0.77765595    -0.06700
C1652       C  0.62874957  0.34473530  0.75635004    -0.17800
C1653       C  0.62960296  0.34265641  0.71851895     0.10500
C1654       C  0.65662828  0.31997721  0.70115344    -0.06600
C1655       C  0.67493946  0.29663061  0.72451736    -0.17900
C1656       C  0.67834404  0.30165709  0.75980526     0.10500
S1657       S  0.59132303  0.36354371  0.69582691    -0.32800
S1658       S  0.72078983  0.28215201  0.77640230    -0.32800
H1659       H  0.70677528  0.25593900  0.79742130     0.28500
H1660       H  0.57789031  0.38434280  0.72377229     0.28500
H1661       H  0.60813929  0.36109538  0.76921622     0.19100
H1662       H  0.68924921  0.27375935  0.71515835     0.19100
C1663       C  0.69777908  0.34620987  0.82518368    -0.06700
C1664       C  0.71221627  0.35207121  0.85935065    -0.17800
C1665       C  0.75072985  0.35932322  0.86425532     0.10500
C1666       C  0.77636944  0.35140129  0.83606972    -0.06600
C1667       C  0.75931965  0.34611181  0.80385795    -0.17900
C1668       C  0.72334876  0.35594549  0.79787446     0.10500
S1669       S  0.76551013  0.37312279  0.90706549    -0.32800
S1670       S  0.71696191  0.37304974  0.75305673    -0.32800
H1671       H  0.68194309  0.38743990  0.75349550     0.28500
H1672       H  0.73013224  0.37930817  0.92118092     0.28500
H1673       H  0.69389782  0.35057097  0.88194397     0.19100
H1674       H  0.77431896  0.33625139  0.78150330     0.19100
C1675       C  0.65375931  0.15484821  0.78070994    -0.06700
C1676       C  0.62998771  0.17251535  0.75604287    -0.17800
C1677       C  0.62778912  0.16121684  0.72068153     0.10500
C1678       C  0.65944060  0.14466593  0.70621339    -0.06600
C1679       C  0.67166066  0.11784995  0.72972077    -0.17900
C1680       C  0.66875289  0.12216676  0.76685485     0.10500
S1681       S  0.58797901  0.17218453  0.69450497    -0.32800
S1682       S  0.68479696  0.08528822  0.79377388    -0.32800
H1683       H  0.65390738  0.08522675  0.81613685     0.28500
H1684       H  0.56670240  0.18606910  0.72240238     0.28500
H1685       H  0.61292128  0.19480951  0.76253304     0.19100
H1686       H  0.68341741  0.09362715  0.71962684     0.19100
C1687       C  0.78940948  0.17010281  0.82161162    -0.06700
C1688       C  0.76841653  0.18810795  0.79555019    -0.17800
C1689       C  0.73020200  0.18563895  0.79284836     0.10500
C1690       C  0.70904322  0.16552277  0.81768735    -0.06600
C1691       C  0.73063676  0.14091303  0.83801670    -0.17900
C1692       C  0.76980862  0.14252348  0.84018936     0.10500
S1693       S  0.71246367  0.20367168  0.75237325    -0.32800
S1694       S  0.79264710  0.10540148  0.86212559    -0.32800
H1695       H  0.76229742  0.09341081  0.88203701     0.28500
H1696       H  0.67980352  0.21842020  0.76526408     0.28500
H1697       H  0.78209267  0.20606319  0.77741502     0.19100
H1698       H  0.71749904  0.11867467  0.85085226     0.19100
C1699       C  0.65705131  0.21061277  0.82913234    -0.06700
C1700       C  0.62567964  0.22971557  0.81759979    -0.17800
C1701       C  0.62342243  0.26752015  0.81711241     0.10500
C1702       C  0.65303660  0.28836577  0.82996635    -0.06600
C1703       C  0.67685244  0.26936151  0.85246352    -0.17900
C1704       C  0.67852729  0.23135343  0.85321735     0.10500
S1705       S  0.58147925  0.28833460  0.80124912    -0.32800
S1706       S  0.70112906  0.21322044  0.89149085    -0.32800
H1707       H  0.73138963  0.19896822  0.87393696     0.28500
H1708       H  0.56758111  0.25825094  0.78454187     0.28500
H1709       H  0.60164450  0.21546570  0.81083764     0.19100
H1710       H  0.69428680  0.28404486  0.86938310     0.19100
C1711       C  0.64284832  0.14666703  0.84727874    -0.06700
C1712       C  0.65820903  0.13808261  0.88049818    -0.17800
C1713       C  0.64049006  0.11708473  0.90637863     0.10500
C1714       C  0.60517552  0.10381707  0.89976170    -0.06600
C1715       C  0.58809564  0.11467264  0.86865178    -0.17900
C1716       C  0.60500617  0.13656254  0.84341843     0.10500
S1717       S  0.66357784  0.10984245  0.94780822    -0.32800
S1718       S  0.57473320  0.14942400  0.80787341    -0.32800
H1719       H  0.54124592  0.14799184  0.82671589     0.28500
H1720       H  0.69928289  0.11801631  0.93594242     0.28500
H1721       H  0.68445056  0.14780418  0.88726999     0.19100
H1722       H  0.56057807  0.10565230  0.86360335     0.19100
C1723       C  0.60026750  0.39149586  0.59732221    -0.06700
C1724       C  0.59687042  0.35538143  0.59082899    -0.17800
C1725       C  0.61796313  0.32918189  0.60860468     0.10500
C1726       C  0.64415386  0.33969905  0.63487291    -0.06600
C1727       C  0.64785975  0.37689331  0.63967367    -0.17900
C1728       C  0.62670312  0.40255548  0.62139136     0.10500
S1729       S  0.60799204  0.28378225  0.59617416    -0.32800
S1730       S  0.63388952  0.44879119  0.63159573    -0.32800
H1731       H  0.61806305  0.46438759  0.60139356     0.28500
H1732       H  0.58195502  0.29051541  0.56969486     0.28500
H1733       H  0.57673576  0.34779232  0.57166535     0.19100
H1734       H  0.66632749  0.38620320  0.65961678     0.19100
C1735       C  0.86985022  0.16365826  0.64539161    -0.06700
C1736       C  0.90297220  0.14652620  0.65642430    -0.17800
C1737       C  0.92559551  0.12701169  0.63379348     0.10500
C1738       C  0.91525084  0.12341947  0.59839533    -0.06600
C1739       C  0.88674064  0.14557989  0.58547502    -0.17900
C1740       C  0.86498243  0.16690268  0.60804085     0.10500
S1741       S  0.96756296  0.10740892  0.65137785    -0.32800
S1742       S  0.83156659  0.19597250  0.58628450    -0.32800
H1743       H  0.81175637  0.20858976  0.61529304     0.28500
H1744       H  0.95996154  0.11234524  0.68739633     0.28500
H1745       H  0.91205390  0.14783364  0.68321304     0.19100
H1746       H  0.88055434  0.14562881  0.55762357     0.19100
C1747       C  0.66003695  0.13385952  0.64062299    -0.06700
C1748       C  0.63016994  0.15009528  0.62223171    -0.17800
C1749       C  0.60796451  0.13149309  0.59935466     0.10500
C1750       C  0.61511051  0.09526613  0.59348854    -0.06600
C1751       C  0.64489954  0.07855974  0.61021521    -0.17900
C1752       C  0.66685131  0.09672909  0.63422698     0.10500
S1753       S  0.56993494  0.15549745  0.57938545    -0.32800
S1754       S  0.70259498  0.07074773  0.65584507    -0.32800
H1755       H  0.69186975  0.03674181  0.64523454     0.28500
H1756       H  0.56784304  0.13459276  0.54909914     0.28500
H1757       H  0.62243134  0.17761306  0.62633631     0.19100
H1758       H  0.64985531  0.05048791  0.60553267     0.19100
C1759       C  0.83898357  0.36593444  0.86577332    -0.06700
C1760       C  0.84208285  0.40302276  0.85883247    -0.17800
C1761       C  0.86460620  0.42498771  0.87821310     0.10500
C1762       C  0.88374373  0.41071380  0.90717237    -0.06600
C1763       C  0.87798283  0.37534556  0.91739934    -0.17900
C1764       C  0.85554466  0.35289481  0.89785467     0.10500
S1765       S  0.86833443  0.47097094  0.86387383    -0.32800
S1766       S  0.84494540  0.31100195  0.91940059    -0.32800
H1767       H  0.87994697  0.30552453  0.93415092     0.28500
H1768       H  0.87349793  0.48518315  0.89744588     0.28500
H1769       H  0.82748072  0.41563437  0.83753654     0.19100
H1770       H  0.89085365  0.36532695  0.94129037     0.19100
C1771       C  0.85401404  0.15813488  0.85198330    -0.06700
C1772       C  0.88057217  0.13301305  0.83954190    -0.17800
C1773       C  0.89941934  0.10914612  0.86149397     0.10500
C1774       C  0.89703558  0.11250015  0.89836816    -0.06600
C1775       C  0.87153836  0.13744615  0.91189842    -0.17900
C1776       C  0.84943816  0.15942940  0.88948825     0.10500
S1777       S  0.92243980  0.07251688  0.83969384    -0.32800
S1778       S  0.81464680  0.18739215  0.90964550    -0.32800
H1779       H  0.82764819  0.18454342  0.94436602     0.28500
H1780       H  0.91091037  0.04673371  0.86465707     0.28500
H1781       H  0.88691304  0.13003146  0.81205439     0.19100
H1782       H  0.86853206  0.13928745  0.94021979     0.19100
C1783       C  0.62945109  0.35298089  0.84018572    -0.06700
C1784       C  0.61094318  0.33747751  0.87004390    -0.17800
C1785       C  0.59052957  0.35743334  0.89456789     0.10500
C1786       C  0.58704907  0.39448031  0.89014682    -0.06600
C1787       C  0.60350574  0.41051898  0.86066354    -0.17900
C1788       C  0.62510873  0.39093828  0.83644147     0.10500
S1789       S  0.57066458  0.33390591  0.93185874    -0.32800
S1790       S  0.64974828  0.41712912  0.80439885    -0.32800
H1791       H  0.62739347  0.44803420  0.80551741     0.28500
H1792       H  0.54083408  0.35752041  0.93714646     0.28500
H1793       H  0.61315181  0.30940436  0.87630239     0.19100
H1794       H  0.60126407  0.43925892  0.85791367     0.19100
C1795       C  0.85131175  0.36261273  0.65640813    -0.06700
C1796       C  0.87295455  0.39131412  0.66798662    -0.17800
C1797       C  0.89238028  0.41388194  0.64494573     0.10500
C1798       C  0.89202911  0.40804916  0.60843167    -0.06600
C1799       C  0.87171985  0.37957735  0.59599715    -0.17900
C1800       C  0.85154321  0.35686717  0.61880727     0.10500
S1801       S  0.91465142  0.45227205  0.66291894    -0.32800
S1802       S  0.82625940  0.32303837  0.59575256    -0.32800
H1803       H  0.80669536  0.30684748  0.62328925     0.28500
H1804       H  0.91638155  0.43970751  0.69801425     0.28500
H1805       H  0.87401337  0.39801205  0.69537634     0.19100
H1806       H  0.87144509  0.37500117  0.56787137     0.19100
C1807       C  0.91355197  0.93187833  0.08469341     0.41900
N1808       N  0.95388626  0.96942053  0.06642516     0.00800
C1809       C  0.95545672  0.57411692  0.41305721    -0.07100
H1810       H  0.95880360  0.94082069  0.38926418     0.06300
C1811       C  0.58312110  0.93119265  0.44962155    -0.07400
Co1812     Co  0.92974903  0.01069658  0.50077660     0.74200
N1813       N  0.95320642  0.97130372  0.43683811    -0.26600
Co1814     Co  0.49815023  0.00553252  0.43630710     0.74100
C1815       C  0.56842874  0.91889765  0.41617789     0.42000
N1816       N  0.56131811  0.95754683  0.03899614     0.00400
N1817       N  0.53528572  0.96267747  0.43496058     0.00500
N1818       N  0.90798050  0.57422002  0.45178124    -0.47500
H1819       H  0.87546811  0.94585373  0.03807674     0.06300
N1820       N  0.92763704  0.97236041  0.46182354     0.00800
N1821       N  0.54288454  0.53880521  0.43745865     0.00500
C1822       C  0.58488192  0.57626434  0.42223739     0.42100
N1823       N  0.53672406  0.96105111  0.06466660    -0.26100
C1824       C  0.91495792  0.57901873  0.04516057    -0.07000
N1825       N  0.94635669  0.94612599  0.09199364    -0.47200
N1826       N  0.55147691  0.56357789  0.41376772    -0.47400
C1827       C  0.93126451  0.59496991  0.07618827     0.41900
N1828       N  0.93299203  0.54928702  0.46007561     0.00800
N1829       N  0.54338203  0.53705935  0.06254397    -0.26100
N1830       N  0.92783524  0.97185756  0.04249724    -0.26600
N1831       N  0.56971087  0.53340679  0.03862872     0.00400
H1832       H  0.53773940  0.56967532  0.10866482     0.06300
H1833       H  0.62169818  0.55612314  0.46828055     0.06300
N1834       N  0.96036001  0.54796242  0.43705580    -0.23100
N1835       N  0.56079749  0.95838711  0.45920333    -0.26300
N1836       N  0.96100651  0.54668687  0.06323247     0.00800
C1837       C  0.90939847  0.93241011  0.42667273     0.42200
C1838       C  0.54497982  0.93732470  0.09042441    -0.07500
N1839       N  0.56883790  0.53398022  0.46100576    -0.26300
H1840       H  0.60805499  0.92291389  0.46288999     0.06300
N1841       N  0.90060732  0.94989046  0.45646327    -0.47500
H1842       H  0.53143897  0.93536937  0.11587666     0.06300
C1843       C  0.58882539  0.57392762  0.07281501     0.42000
C1844       C  0.90119150  0.94880496  0.05164101    -0.07000
Co1845     Co  0.99811238  0.50345279  0.06490421     0.73800
N1846       N  0.58659179  0.93273884  0.04584989    -0.47200
C1847       C  0.91994198  0.59096892  0.42195212     0.42300
N1848       N  0.95934980  0.57307618  0.08584920    -0.47200
Co1849     Co  0.56579014  0.49508141  0.99933534     0.73900
C1850       C  0.59646685  0.55613471  0.45373623    -0.07500
C1851       C  0.94390992  0.94686290  0.41329634    -0.07100
N1852       N  0.93508745  0.54935624  0.03925812    -0.26600
N1853       N  0.53936516  0.94025884  0.40852645    -0.47400
H1854       H  0.97306104  0.57848963  0.39034274     0.06300
C1855       C  0.55294695  0.56218118  0.08522935    -0.07500
Cl1856     Cl  0.49844150  0.50316764  0.00002139    -0.50500
C1857       C  0.57791450  0.91867419  0.07763659     0.42000
H1858       H  0.89124492  0.58766631  0.03017523     0.06200
N1859       N  0.59791623  0.55449306  0.04426760    -0.47200
C1860       C  0.66339229  0.66967993  0.31883562    -0.03100
C1861       C  0.65728698  0.82978301  0.31847744    -0.03100
C1862       C  0.66670211  0.81508007  0.15997066    -0.03100
C1863       C  0.67817872  0.65661411  0.16925580    -0.03100
C1864       C  0.83013934  0.68296187  0.32451297    -0.03100
C1865       C  0.84177960  0.67932653  0.17354337    -0.03100
C1866       C  0.82739478  0.84107254  0.18449472    -0.03100
C1867       C  0.81880418  0.84382712  0.33715092    -0.03100
C1868       C  0.83529486  0.85390178  0.22347652    -0.06700
C1869       C  0.86550120  0.83959634  0.24292964    -0.17800
C1870       C  0.86623801  0.84094318  0.28035961     0.10500
C1871       C  0.83596340  0.85659732  0.29900591    -0.06600
C1872       C  0.81797331  0.88375569  0.27820970    -0.17900
C1873       C  0.81604216  0.88166113  0.24103722     0.10500
S1874       S  0.91010973  0.83200418  0.30008180    -0.32800
S1875       S  0.79013513  0.91540091  0.21728272    -0.32800
H1876       H  0.78349928  0.93827173  0.24571877     0.28500
H1877       H  0.90337270  0.85363997  0.32940787     0.28500
H1878       H  0.88725508  0.82521195  0.22930573     0.19100
H1879       H  0.79919121  0.90233988  0.29062550     0.19100
C1880       C  0.84200709  0.72226219  0.17285291    -0.06700
C1881       C  0.82216637  0.73836409  0.20026879    -0.17800
C1882       C  0.82416179  0.77385921  0.20914083     0.10500
C1883       C  0.83818284  0.79935126  0.18431333    -0.06600
C1884       C  0.86320756  0.78401416  0.15976847    -0.17900
C1885       C  0.86655338  0.74645931  0.15461712     0.10500
S1886       S  0.81305048  0.78160671  0.25519903    -0.32800
S1887       S  0.90692411  0.73254802  0.13007237    -0.32800
H1888       H  0.90955777  0.76332922  0.10852122     0.28500
H1889       H  0.82194101  0.74812043  0.26878738     0.28500
H1890       H  0.80902908  0.72254210  0.21949308     0.19100
H1891       H  0.88186479  0.80115222  0.14554734     0.19100
C1892       C  0.84672412  0.67722070  0.28568856    -0.06700
C1893       C  0.83689431  0.64501206  0.26868839    -0.17800
C1894       C  0.84327172  0.63961830  0.23256022     0.10500
C1895       C  0.85602170  0.66832373  0.21169091    -0.06600
C1896       C  0.87826661  0.69185153  0.22968227    -0.17900
C1897       C  0.87222014  0.69882423  0.26544141     0.10500
S1898       S  0.83671312  0.59594653  0.21513510    -0.32800
S1899       S  0.89900509  0.73545928  0.28007786    -0.32800
H1900       H  0.89876683  0.75575430  0.24850063     0.28500
H1901       H  0.86751738  0.59699512  0.19274576     0.28500
H1902       H  0.82385932  0.62383329  0.28372713     0.19100
H1903       H  0.89640092  0.70877505  0.21429216     0.19100
C1904       C  0.83013789  0.72417168  0.33603620    -0.06700
C1905       C  0.79631631  0.74265933  0.34135348    -0.17800
C1906       C  0.79366565  0.77851370  0.35014312     0.10500
C1907       C  0.82352753  0.80151090  0.34319572    -0.06600
C1908       C  0.85776947  0.78317745  0.34614128    -0.17900
C1909       C  0.86081707  0.74510171  0.34650084     0.10500
S1910       S  0.76317744  0.78602759  0.38700957    -0.32800
S1911       S  0.90279377  0.72667603  0.36504382    -0.32800
H1912       H  0.90823705  0.69886945  0.34141753     0.28500
H1913       H  0.76803854  0.75241429  0.40335343     0.28500
H1914       H  0.77130842  0.72862308  0.34519918     0.19100
H1915       H  0.88158237  0.79803043  0.35302122     0.19100
C1916       C  0.72158225  0.64949993  0.17032013    -0.06700
C1917       C  0.74411141  0.64380280  0.14017922    -0.17800
C1918       C  0.78320460  0.64561608  0.14192812     0.10500
C1919       C  0.79997722  0.66513805  0.17011433    -0.06600
C1920       C  0.77541493  0.66938663  0.19925339    -0.17900
C1921       C  0.74214784  0.65163280  0.20131593     0.10500
S1922       S  0.80590731  0.61273523  0.11493686    -0.32800
S1923       S  0.74943000  0.61125587  0.22704651    -0.32800
H1924       H  0.76127047  0.62806297  0.25747093     0.28500
H1925       H  0.83249475  0.60315170  0.13989024     0.28500
H1926       H  0.73189375  0.63359755  0.11664453     0.19100
H1927       H  0.78550800  0.67544123  0.22460970     0.19100
C1928       C  0.67346470  0.69871014  0.16028288    -0.06700
C1929       C  0.65450232  0.72119593  0.18378462    -0.17800
C1930       C  0.63885876  0.75320793  0.17343602     0.10500
C1931       C  0.66025759  0.77479064  0.15119444    -0.06600
C1932       C  0.68066758  0.75540540  0.12548402    -0.17900
C1933       C  0.68406420  0.71715151  0.12790873     0.10500
S1934       S  0.59625743  0.76652803  0.19465203    -0.32800
S1935       S  0.70170045  0.69449785  0.08971481    -0.32800
H1936       H  0.69725340  0.72331289  0.06582092     0.28500
H1937       H  0.58758292  0.79282933  0.16927763     0.28500
H1938       H  0.65194127  0.71643322  0.21106206     0.19100
H1939       H  0.69472131  0.76996515  0.10462506     0.19100
C1940       C  0.71012221  0.82265017  0.15690927    -0.06700
C1941       C  0.72741504  0.85180488  0.13892075    -0.17800
C1942       C  0.76443107  0.86224915  0.14685828     0.10500
C1943       C  0.78430742  0.84437509  0.17547489    -0.06600
C1944       C  0.76146096  0.82266332  0.19545243    -0.17900
C1945       C  0.73450280  0.80394880  0.17906109     0.10500
S1946       S  0.77947529  0.90131562  0.12253227    -0.32800
S1947       S  0.74294659  0.75685546  0.17553804    -0.32800
H1948       H  0.75114061  0.75271675  0.21133384     0.28500
H1949       H  0.80379635  0.91399491  0.14737895     0.28500
H1950       H  0.71290323  0.86660811  0.11863956     0.19100
H1951       H  0.76792065  0.81511179  0.22141871     0.19100
C1952       C  0.65386100  0.82663494  0.27756531    -0.06700
C1953       C  0.62785414  0.84509501  0.25622588    -0.17800
C1954       C  0.62892709  0.84313677  0.21841162     0.10500
C1955       C  0.65601581  0.82050415  0.20111420    -0.06600
C1956       C  0.67421509  0.79705491  0.22446310    -0.17900
C1957       C  0.67741269  0.80194547  0.25980098     0.10500
S1958       S  0.59071038  0.86403366  0.19568211    -0.32800
S1959       S  0.71972959  0.78234374  0.27663500    -0.32800
H1960       H  0.70552987  0.75628264  0.29776220     0.28500
H1961       H  0.58042989  0.88791664  0.22234542     0.28500
H1962       H  0.60714548  0.86143115  0.26901164     0.19100
H1963       H  0.68851859  0.77419707  0.21506917     0.19100
C1964       C  0.69688926  0.84640056  0.32497152    -0.06700
C1965       C  0.71125004  0.85254722  0.35911223    -0.17800
C1966       C  0.74970031  0.86007289  0.36400614     0.10500
C1967       C  0.77544537  0.85201235  0.33596863    -0.06600
C1968       C  0.75849059  0.84658673  0.30372690    -0.17900
C1969       C  0.72248039  0.85619354  0.29764623     0.10500
S1970       S  0.76420994  0.87450805  0.40664565    -0.32800
S1971       S  0.71626494  0.87324045  0.25275664    -0.32800
H1972       H  0.68109266  0.88728222  0.25272090     0.28500
H1973       H  0.72882861  0.88334127  0.41935650     0.28500
H1974       H  0.69292783  0.85116578  0.38171384     0.19100
H1975       H  0.77355334  0.83673707  0.28142393     0.19100
C1976       C  0.65211045  0.65530879  0.28051563    -0.06700
C1977       C  0.62822677  0.67297814  0.25594265    -0.17800
C1978       C  0.62619912  0.66196006  0.22046289     0.10500
C1979       C  0.65791235  0.64546301  0.20595102    -0.06600
C1980       C  0.67005608  0.61853476  0.22935123    -0.17900
C1981       C  0.66715313  0.62271917  0.26650885     0.10500
S1982       S  0.58641676  0.67312218  0.19430791    -0.32800
S1983       S  0.68324749  0.58579182  0.29331283    -0.32800
H1984       H  0.65165433  0.58477231  0.31472247     0.28500
H1985       H  0.56497464  0.68659370  0.22229022     0.28500
H1986       H  0.61093074  0.69504414  0.26260053     0.19100
H1987       H  0.68189260  0.59438522  0.21915151     0.19100
C1988       C  0.78785986  0.67094155  0.32128619    -0.06700
C1989       C  0.76673342  0.68892730  0.29528148    -0.17800
C1990       C  0.72849671  0.68636659  0.29263997     0.10500
C1991       C  0.70746563  0.66609081  0.31742816    -0.06600
C1992       C  0.72921110  0.64150568  0.33761410    -0.17900
C1993       C  0.76832938  0.64334601  0.33986228     0.10500
S1994       S  0.71057317  0.70429782  0.25219925    -0.32800
S1995       S  0.79107332  0.60628385  0.36186773    -0.32800
H1996       H  0.76171207  0.59753241  0.38469196     0.28500
H1997       H  0.67801660  0.71913373  0.26529241     0.28500
H1998       H  0.78028667  0.70676278  0.27702205     0.19100
H1999       H  0.71631427  0.61900327  0.35024238     0.19100
C2000       C  0.65522759  0.71090471  0.32921303    -0.06700
C2001       C  0.62397143  0.73014469  0.31753999    -0.17800
C2002       C  0.62190608  0.76801060  0.31702216     0.10500
C2003       C  0.65161858  0.78874747  0.32992074    -0.06600
C2004       C  0.67514626  0.76963335  0.35260052    -0.17900
C2005       C  0.67664702  0.73160120  0.35336418     0.10500
S2006       S  0.58004591  0.78910172  0.30126185    -0.32800
S2007       S  0.69915436  0.71329496  0.39157757    -0.32800
H2008       H  0.72976319  0.69986526  0.37388933     0.28500
H2009       H  0.56488302  0.75874288  0.28613976     0.28500
H2010       H  0.59988794  0.71593960  0.31077885     0.19100
H2011       H  0.69250161  0.78427165  0.36963299     0.19100
C2012       C  0.64176917  0.64647274  0.34714939    -0.06700
C2013       C  0.65727543  0.63794257  0.38034978    -0.17800
C2014       C  0.64001792  0.61633390  0.40604313     0.10500
C2015       C  0.60546513  0.60164983  0.39889750    -0.06600
C2016       C  0.58835114  0.61200914  0.36761798    -0.17900
C2017       C  0.60435311  0.63528170  0.34305162     0.10500
S2018       S  0.66308380  0.60909659  0.44751087    -0.32800
S2019       S  0.57344887  0.64912033  0.30835508    -0.32800
H2020       H  0.54013967  0.64511662  0.32710244     0.28500
H2021       H  0.68881353  0.63655929  0.44392856     0.28500
H2022       H  0.68349710  0.64772704  0.38706221     0.19100
H2023       H  0.56133487  0.60195277  0.36213886     0.19100
C2024       C  0.60166744  0.89322507  0.09699965    -0.06700
C2025       C  0.59767889  0.85723053  0.09040734    -0.17800
C2026       C  0.61782564  0.83073302  0.10863744     0.10500
C2027       C  0.64396136  0.84077327  0.13508269    -0.06600
C2028       C  0.64813918  0.87788465  0.14016584    -0.17900
C2029       C  0.62793792  0.90383455  0.12136183     0.10500
S2030       S  0.60724232  0.78572353  0.09570901    -0.32800
S2031       S  0.63623426  0.95003583  0.13044594    -0.32800
H2032       H  0.62958209  0.96293410  0.09607176     0.28500
H2033       H  0.57196426  0.79252939  0.08210600     0.28500
H2034       H  0.57812725  0.84987488  0.07056829     0.19100
H2035       H  0.66656031  0.88689183  0.16029483     0.19100
C2036       C  0.86895110  0.66370591  0.14534895    -0.06700
C2037       C  0.90209950  0.64669967  0.15660138    -0.17800
C2038       C  0.92483804  0.62703112  0.13419001     0.10500
C2039       C  0.91469365  0.62321667  0.09877731    -0.06600
C2040       C  0.88614653  0.64519312  0.08564265    -0.17900
C2041       C  0.86424737  0.66663415  0.10797008     0.10500
S2042       S  0.96675716  0.60768651  0.15207708    -0.32800
S2043       S  0.83096089  0.69554311  0.08585575    -0.32800
H2044       H  0.81146271  0.70884144  0.11474618     0.28500
H2045       H  0.95712949  0.60979271  0.18799510     0.28500
H2046       H  0.91119370  0.64826217  0.18337530     0.19100
H2047       H  0.88009448  0.64507316  0.05776889     0.19100
C2048       C  0.65860706  0.63464935  0.14032857    -0.06700
C2049       C  0.62840063  0.65067909  0.12228941    -0.17800
C2050       C  0.60637772  0.63203880  0.09926041     0.10500
C2051       C  0.61426380  0.59606518  0.09265202    -0.06600
C2052       C  0.64435037  0.57959739  0.10910568    -0.17900
C2053       C  0.66604369  0.59775614  0.13332585     0.10500
S2054       S  0.56752243  0.65555679  0.08022974    -0.32800
S2055       S  0.70147266  0.57167792  0.15526627    -0.32800
H2056       H  0.70191490  0.54233329  0.13266698     0.28500
H2057       H  0.56588162  0.63542975  0.04939247     0.28500
H2058       H  0.62033467  0.67805125  0.12676790     0.19100
H2059       H  0.64941488  0.55152356  0.10449859     0.19100
C2060       C  0.83804902  0.86653785  0.36583882    -0.06700
C2061       C  0.84175793  0.90349113  0.35847286    -0.17800
C2062       C  0.86442712  0.92537836  0.37774770     0.10500
C2063       C  0.88330188  0.91113048  0.40685511    -0.06600
C2064       C  0.87679824  0.87603596  0.41759151    -0.17900
C2065       C  0.85369275  0.85378378  0.39847554     0.10500
S2066       S  0.86863813  0.97122985  0.36312040    -0.32800
S2067       S  0.84176985  0.81216005  0.42014070    -0.32800
H2068       H  0.85615202  0.81893717  0.45358087     0.28500
H2069       H  0.87375831  0.98560959  0.39663004     0.28500
H2070       H  0.82750288  0.91607991  0.33696282     0.19100
H2071       H  0.89003742  0.86606958  0.44128863     0.19100
C2072       C  0.85260487  0.65889408  0.35166798    -0.06700
C2073       C  0.87943545  0.63409683  0.33914737    -0.17800
C2074       C  0.89853244  0.61026999  0.36094676     0.10500
C2075       C  0.89604861  0.61321579  0.39785796    -0.06600
C2076       C  0.87027926  0.63790524  0.41151463    -0.17900
C2077       C  0.84798379  0.65991012  0.38920043     0.10500
S2078       S  0.92223750  0.57428714  0.33879129    -0.32800
S2079       S  0.81304225  0.68774796  0.40939534    -0.32800
H2080       H  0.82065861  0.67867620  0.44470263     0.28500
H2081       H  0.91057065  0.54796476  0.36313229     0.28500
H2082       H  0.88599779  0.63147873  0.31166773     0.19100
H2083       H  0.86737437  0.63964834  0.43984774     0.19100
C2084       C  0.62867977  0.85377322  0.33985131    -0.06700
C2085       C  0.60943873  0.83844363  0.36934466    -0.17800
C2086       C  0.58947143  0.85864737  0.39397743     0.10500
C2087       C  0.58722327  0.89580355  0.39000241    -0.06600
C2088       C  0.60431762  0.91174091  0.36081914    -0.17900
C2089       C  0.62559878  0.89188981  0.33656613     0.10500
S2090       S  0.56845032  0.83514594  0.43072210    -0.32800
S2091       S  0.65026233  0.91754993  0.30405003    -0.32800
H2092       H  0.64503053  0.95159345  0.31841266     0.28500
H2093       H  0.54032128  0.86023700  0.43756342     0.28500
H2094       H  0.61065530  0.81025179  0.37521584     0.19100
H2095       H  0.60217094  0.94047089  0.35797317     0.19100
C2096       C  0.85124493  0.86286626  0.15684581    -0.06700
C2097       C  0.87358366  0.89085488  0.16892547    -0.17800
C2098       C  0.89292244  0.91373111  0.14629615     0.10500
C2099       C  0.89232154  0.90877008  0.10964132    -0.06600
C2100       C  0.87172565  0.88072693  0.09673522    -0.17900
C2101       C  0.85149438  0.85770801  0.11916362     0.10500
S2102       S  0.91590753  0.95043001  0.16633378    -0.32800
S2103       S  0.82641435  0.82415157  0.09554944    -0.32800
H2104       H  0.80667527  0.80768178  0.12280101     0.28500
H2105       H  0.90399740  0.97590435  0.14112138     0.28500
H2106       H  0.87559318  0.89686922  0.19648176     0.19100
H2107       H  0.87138456  0.87663981  0.06852943     0.19100
C2108       C  0.91277764  0.93142079  0.58349182     0.41900
N2109       N  0.95313724  0.96889719  0.56514120     0.00800
C2110       C  0.95484540  0.57423684  0.91314071    -0.07100
H2111       H  0.95931216  0.93986283  0.89054338     0.06300
C2112       C  0.58301388  0.93094426  0.95050954    -0.07400
Co2113     Co  0.93051629  0.01053018  0.00160320     0.74200
N2114       N  0.95379232  0.97054903  0.93796362    -0.26600
Co2115     Co  0.49832812  0.00542852  0.93588002     0.74100
C2116       C  0.56849366  0.91825285  0.91720045     0.42000
N2117       N  0.56117808  0.95709168  0.53897198     0.00400
N2118       N  0.53549995  0.96253066  0.93504416     0.00500
N2119       N  0.90736287  0.57413644  0.95186499    -0.47500
H2120       H  0.87439794  0.94587490  0.53717447     0.06300
N2121       N  0.92825903  0.97181859  0.96296544     0.00800
N2122       N  0.54350344  0.53900391  0.93694480     0.00500
C2123       C  0.58517650  0.57700275  0.92233377     0.42100
N2124       N  0.53661618  0.96055760  0.56468168    -0.26100
C2125       C  0.91427551  0.57913870  0.54409308    -0.07000
N2126       N  0.94567972  0.94547915  0.59056630    -0.47200
N2127       N  0.55202343  0.56400529  0.91346853    -0.47400
C2128       C  0.93074092  0.59548906  0.57482380     0.41900
N2129       N  0.93279056  0.54971049  0.96056578     0.00800
N2130       N  0.54341598  0.53725501  0.56298763    -0.26100
N2131       N  0.92696819  0.97161925  0.54135978    -0.26600
N2132       N  0.56960049  0.53340732  0.53896049     0.00400
H2133       H  0.53810115  0.57035770  0.60882552     0.06300
H2134       H  0.62155052  0.55712470  0.96885194     0.06300
N2135       N  0.96012527  0.54855689  0.93752724    -0.23100
N2136       N  0.56083021  0.95841905  0.95947457    -0.26300
N2137       N  0.96065262  0.54717325  0.56212301     0.00800
C2138       C  0.90994934  0.93172069  0.92800288     0.42200
C2139       C  0.54471388  0.93658923  0.59026278    -0.07500
N2140       N  0.56927142  0.53429496  0.96067927    -0.26300
H2141       H  0.60775405  0.92268138  0.96411637     0.06300
N2142       N  0.90114690  0.94940022  0.95769494    -0.47500
H2143       H  0.53116425  0.93454428  0.61570399     0.06300
C2144       C  0.58899059  0.57430418  0.57264953     0.42000
C2145       C  0.90025543  0.94860606  0.55056324    -0.07000
Co2146     Co  0.99748632  0.50366530  0.56439792     0.73800
N2147       N  0.58629243  0.93208060  0.54567564    -0.47200
C2148       C  0.91911765  0.59063738  0.92176600     0.42300
N2149       N  0.95907492  0.57384849  0.58439350    -0.47200
Co2150     Co  0.56528960  0.49492138  0.49983092     0.73900
C2151       C  0.59665674  0.55681428  0.95383634    -0.07500
C2152       C  0.94447004  0.94600347  0.91457818    -0.07100
N2153       N  0.93453988  0.54949351  0.53835271    -0.26600
N2154       N  0.53963884  0.93969129  0.90898533    -0.47400
H2155       H  0.97232395  0.57840470  0.89030185     0.06300
C2156       C  0.55317945  0.56259500  0.58540199    -0.07500
Cl2157     Cl  0.49796116  0.50319486  0.50067454    -0.50500
C2158       C  0.57749884  0.91778300  0.57735270     0.42000
H2159       H  0.89040985  0.58754578  0.52919826     0.06200
N2160       N  0.59785266  0.55455374  0.54424560    -0.47200
C2161       C  0.66360113  0.66986927  0.81853545    -0.03100
C2162       C  0.65847795  0.83002352  0.81974093    -0.03100
C2163       C  0.66689441  0.81573989  0.66116175    -0.03100
C2164       C  0.67849242  0.65680977  0.66930674    -0.03100
C2165       C  0.83045260  0.68272665  0.82350156    -0.03100
C2166       C  0.84183011  0.68013153  0.67263377    -0.03100
C2167       C  0.82741676  0.84187257  0.68489059    -0.03100
C2168       C  0.81998256  0.84344325  0.83752441    -0.03100
C2169       C  0.83594044  0.85454132  0.72382058    -0.06700
C2170       C  0.86618019  0.83991866  0.74300227    -0.17800
C2171       C  0.86712868  0.84096448  0.78045778     0.10500
C2172       C  0.83695919  0.85647580  0.79937977    -0.06600
C2173       C  0.81894046  0.88386130  0.77891832    -0.17900
C2174       C  0.81690844  0.88221045  0.74174491     0.10500
S2175       S  0.91108654  0.83184954  0.79993399    -0.32800
S2176       S  0.79103941  0.91635202  0.71852604    -0.32800
H2177       H  0.78488705  0.93903498  0.74719980     0.28500
H2178       H  0.90449142  0.85324283  0.82946420     0.28500
H2179       H  0.88776677  0.82552400  0.72915163     0.19100
H2180       H  0.80020704  0.90232862  0.79156558     0.19100
C2181       C  0.84189890  0.72305398  0.67219154    -0.06700
C2182       C  0.82246608  0.73900960  0.69994355    -0.17800
C2183       C  0.82452260  0.77443637  0.70906202     0.10500
C2184       C  0.83812929  0.80014289  0.68421166    -0.06600
C2185       C  0.86256418  0.78494951  0.65899610    -0.17900
C2186       C  0.86588732  0.74753182  0.65366558     0.10500
S2187       S  0.81391586  0.78182575  0.75527657    -0.32800
S2188       S  0.90542646  0.73511081  0.62750966    -0.32800
H2189       H  0.92293313  0.71771016  0.65594886     0.28500
H2190       H  0.82304496  0.74825443  0.76850991     0.28500
H2191       H  0.80953835  0.72299106  0.71928869     0.19100
H2192       H  0.88080824  0.80193630  0.64401217     0.19100
C2193       C  0.84725102  0.67708603  0.78479502    -0.06700
C2194       C  0.83750830  0.64501148  0.76756085    -0.17800
C2195       C  0.84381492  0.63998372  0.73136142     0.10500
C2196       C  0.85625896  0.66899595  0.71070532    -0.06600
C2197       C  0.87844469  0.69248334  0.72886200    -0.17900
C2198       C  0.87279538  0.69878301  0.76478860     0.10500
S2199       S  0.83716223  0.59649436  0.71353249    -0.32800
S2200       S  0.90055952  0.73439129  0.78005568    -0.32800
H2201       H  0.89799991  0.75633235  0.74965549     0.28500
H2202       H  0.86858597  0.59717422  0.69195475     0.28500
H2203       H  0.82452643  0.62369843  0.78244070     0.19100
H2204       H  0.89631940  0.70982896  0.71370902     0.19100
C2205       C  0.83060029  0.72383188  0.83527550    -0.06700
C2206       C  0.79685730  0.74242841  0.84069279    -0.17800
C2207       C  0.79446132  0.77814929  0.85000122     0.10500
C2208       C  0.82443415  0.80107804  0.84312829    -0.06600
C2209       C  0.85858885  0.78258927  0.84563952    -0.17900
C2210       C  0.86137550  0.74452946  0.84591126     0.10500
S2211       S  0.76444436  0.78521860  0.88733483    -0.32800
S2212       S  0.90283350  0.72586422  0.86525342    -0.32800
H2213       H  0.90873639  0.69814394  0.84163610     0.28500
H2214       H  0.76745898  0.75079227  0.90223830     0.28500
H2215       H  0.77176142  0.72846673  0.84442007     0.19100
H2216       H  0.88251188  0.79728364  0.85250903     0.19100
C2217       C  0.72186725  0.64961521  0.67028748    -0.06700
C2218       C  0.74425692  0.64338827  0.64017913    -0.17800
C2219       C  0.78331667  0.64575741  0.64154969     0.10500
C2220       C  0.80008950  0.66574282  0.66944372    -0.06600
C2221       C  0.77569570  0.67000257  0.69871799    -0.17900
C2222       C  0.74256156  0.65208950  0.70113693     0.10500
S2223       S  0.80617366  0.61337755  0.61409567    -0.32800
S2224       S  0.75018664  0.61182377  0.72698666    -0.32800
H2225       H  0.76207009  0.62873598  0.75728857     0.28500
H2226       H  0.83311793  0.60387314  0.63871593     0.28500
H2227       H  0.73193141  0.63294078  0.61678977     0.19100
H2228       H  0.78598978  0.67610226  0.72401478     0.19100
C2229       C  0.67371340  0.69909959  0.66081979    -0.06700
C2230       C  0.65377935  0.72133044  0.68397674    -0.17800
C2231       C  0.63884573  0.75376224  0.67377202     0.10500
C2232       C  0.66087024  0.77542005  0.65221563    -0.06600
C2233       C  0.68201748  0.75622182  0.62693940    -0.17900
C2234       C  0.68537098  0.71798101  0.62903228     0.10500
S2235       S  0.59592329  0.76738393  0.69416136    -0.32800
S2236       S  0.70439101  0.69592071  0.59107822    -0.32800
H2237       H  0.70253429  0.72544815  0.56775456     0.28500
H2238       H  0.58803515  0.79370283  0.66852491     0.28500
H2239       H  0.65007375  0.71627095  0.71107232     0.19100
H2240       H  0.69668659  0.77099979  0.60663892     0.19100
C2241       C  0.71018153  0.82368840  0.65843213    -0.06700
C2242       C  0.72713667  0.85314055  0.64065071    -0.17800
C2243       C  0.76407896  0.86372485  0.64847129     0.10500
C2244       C  0.78426179  0.84552813  0.67664640    -0.06600
C2245       C  0.76166051  0.82383493  0.69685774    -0.17900
C2246       C  0.73462435  0.80508410  0.68065919     0.10500
S2247       S  0.77864169  0.90328406  0.62460166    -0.32800
S2248       S  0.74314360  0.75796938  0.67746279    -0.32800
H2249       H  0.75174397  0.75405327  0.71317308     0.28500
H2250       H  0.80404555  0.91526754  0.64877766     0.28500
H2251       H  0.71246585  0.86803523  0.62055542     0.19100
H2252       H  0.76854047  0.81617332  0.72264955     0.19100
C2253       C  0.65475504  0.82724795  0.77878516    -0.06700
C2254       C  0.62867042  0.84587474  0.75764531    -0.17800
C2255       C  0.62930658  0.84376860  0.71981071     0.10500
C2256       C  0.65605755  0.82092701  0.70233317    -0.06600
C2257       C  0.67413068  0.79727724  0.72557671    -0.17900
C2258       C  0.67796688  0.80243746  0.76081612     0.10500
S2259       S  0.59093545  0.86462965  0.69731119    -0.32800
S2260       S  0.72015948  0.78247834  0.77752880    -0.32800
H2261       H  0.70536080  0.75589828  0.79760683     0.28500
H2262       H  0.58026340  0.88799836  0.72428851     0.28500
H2263       H  0.60822313  0.86237775  0.77059605     0.19100
H2264       H  0.68811196  0.77428142  0.71609313     0.19100
C2265       C  0.69813126  0.84638123  0.82618229    -0.06700
C2266       C  0.71271379  0.85200280  0.86032329    -0.17800
C2267       C  0.75119544  0.85940455  0.86509516     0.10500
C2268       C  0.77669526  0.85180491  0.83672106    -0.06600
C2269       C  0.75952217  0.84666150  0.80454259    -0.17900
C2270       C  0.72352177  0.85638272  0.79878141     0.10500
S2271       S  0.76614841  0.87288638  0.90795708    -0.32800
S2272       S  0.71699833  0.87384700  0.75408585    -0.32800
H2273       H  0.68189481  0.88808294  0.75444098     0.28500
H2274       H  0.73087320  0.87737967  0.92287320     0.28500
H2275       H  0.69450647  0.85028058  0.88298110     0.19100
H2276       H  0.77439976  0.83692596  0.78207755     0.19100
C2277       C  0.65197727  0.65508452  0.78042699    -0.06700
C2278       C  0.62776341  0.67218320  0.75574753    -0.17800
C2279       C  0.62617790  0.66108138  0.72020704     0.10500
C2280       C  0.65831525  0.64522730  0.70591908    -0.06600
C2281       C  0.67078641  0.61853189  0.72945467    -0.17900
C2282       C  0.66738838  0.62262177  0.76656612     0.10500
S2283       S  0.58672156  0.67197949  0.69350508    -0.32800
S2284       S  0.68257783  0.58546393  0.79352261    -0.32800
H2285       H  0.65064200  0.58499027  0.81451572     0.28500
H2286       H  0.56442198  0.68408822  0.72150049     0.28500
H2287       H  0.61018398  0.69410465  0.76218644     0.19100
H2288       H  0.68284138  0.59442594  0.71945406     0.19100
C2289       C  0.78815139  0.67089955  0.82001217    -0.06700
C2290       C  0.76687630  0.68924412  0.79431005    -0.17800
C2291       C  0.72855193  0.68671304  0.79189374     0.10500
C2292       C  0.70771436  0.66631145  0.81675152    -0.06600
C2293       C  0.72963442  0.64139183  0.83636499    -0.17900
C2294       C  0.76875988  0.64300674  0.83819803     0.10500
S2295       S  0.71015993  0.70469225  0.75161683    -0.32800
S2296       S  0.79172502  0.60512594  0.85862572    -0.32800
H2297       H  0.76253543  0.59521610  0.88116477     0.28500
H2298       H  0.67744436  0.71909768  0.76478981     0.28500
H2299       H  0.78035817  0.70728693  0.77618094     0.19100
H2300       H  0.71688699  0.61863886  0.84863838     0.19100
C2301       C  0.65564105  0.71112061  0.82895826    -0.06700
C2302       C  0.62480895  0.73087757  0.81698101    -0.17800
C2303       C  0.62274434  0.76868964  0.81761101     0.10500
C2304       C  0.65260679  0.78894894  0.83078759    -0.06600
C2305       C  0.67601048  0.76934325  0.85319571    -0.17900
C2306       C  0.67697956  0.73130903  0.85359389     0.10500
S2307       S  0.58077525  0.79042300  0.80287688    -0.32800
S2308       S  0.69910561  0.71224556  0.89163509    -0.32800
H2309       H  0.73011986  0.69979921  0.87379379     0.28500
H2310       H  0.56397495  0.76022645  0.78912345     0.28500
H2311       H  0.60082016  0.71721960  0.80937607     0.19100
H2312       H  0.69351079  0.78358655  0.87043449     0.19100
C2313       C  0.64216355  0.64691217  0.84715510    -0.06700
C2314       C  0.65840558  0.63714590  0.87970535    -0.17800
C2315       C  0.64128626  0.61547252  0.90540282     0.10500
C2316       C  0.60572673  0.60260654  0.89923282    -0.06600
C2317       C  0.58779278  0.61462762  0.86893877    -0.17900
C2318       C  0.60433840  0.63684957  0.84376982     0.10500
S2319       S  0.66528261  0.60691666  0.94618797    -0.32800
S2320       S  0.57285770  0.65250115  0.81038853    -0.32800
H2321       H  0.55308223  0.62070629  0.80771987     0.28500
H2322       H  0.69946230  0.62119868  0.93633830     0.28500
H2323       H  0.68483001  0.64653818  0.88616777     0.19100
H2324       H  0.55951049  0.60722147  0.86506658     0.19100
C2325       C  0.60169153  0.89293864  0.59699699    -0.06700
C2326       C  0.59904211  0.85690364  0.58997572    -0.17800
C2327       C  0.61979018  0.83088200  0.60817007     0.10500
C2328       C  0.64421196  0.84123401  0.63594382    -0.06600
C2329       C  0.64741439  0.87842325  0.64122134    -0.17900
C2330       C  0.62710151  0.90405961  0.62202222     0.10500
S2331       S  0.61082689  0.78598041  0.59409638    -0.32800
S2332       S  0.63425137  0.95040021  0.63165986    -0.32800
H2333       H  0.62273275  0.96479102  0.59912688     0.28500
H2334       H  0.60479736  0.79465394  0.55834408     0.28500
H2335       H  0.57960676  0.84892633  0.57024758     0.19100
H2336       H  0.66516011  0.88771072  0.66177899     0.19100
C2337       C  0.86887494  0.66466129  0.64422422    -0.06700
C2338       C  0.90166451  0.64706532  0.65542040    -0.17800
C2339       C  0.92381171  0.62672572  0.63316689     0.10500
C2340       C  0.91408216  0.62360314  0.59755413    -0.06600
C2341       C  0.88591179  0.64611258  0.58441851    -0.17900
C2342       C  0.86409670  0.66762759  0.60684539     0.10500
S2343       S  0.96411032  0.60511256  0.65198565    -0.32800
S2344       S  0.83050175  0.69637498  0.58493929    -0.32800
H2345       H  0.81110426  0.70944243  0.61400784     0.28500
H2346       H  0.95188939  0.60462883  0.68730181     0.28500
H2347       H  0.91089265  0.64847107  0.68217093     0.19100
H2348       H  0.87995960  0.64619559  0.55651455     0.19100
C2349       C  0.65910884  0.63496127  0.64007603    -0.06700
C2350       C  0.62992227  0.65140178  0.62084760    -0.17800
C2351       C  0.60807569  0.63282310  0.59753802     0.10500
C2352       C  0.61476305  0.59637983  0.59227655    -0.06600
C2353       C  0.64399776  0.57956027  0.60973283    -0.17900
C2354       C  0.66576908  0.59774525  0.63388405     0.10500
S2355       S  0.57108910  0.65713848  0.57619531    -0.32800
S2356       S  0.70112086  0.57165240  0.65599090    -0.32800
H2357       H  0.69368956  0.53824347  0.64164027     0.28500
H2358       H  0.56925631  0.63554506  0.54636822     0.28500
H2359       H  0.62238766  0.67902338  0.62464258     0.19100
H2360       H  0.64856959  0.55135421  0.60553136     0.19100
C2361       C  0.83943310  0.86586790  0.86630708    -0.06700
C2362       C  0.84309354  0.90287013  0.85917188    -0.17800
C2363       C  0.86546505  0.92473545  0.87873692     0.10500
C2364       C  0.88391921  0.91049317  0.90807500    -0.06600
C2365       C  0.87764092  0.87526410  0.91847719    -0.17900
C2366       C  0.85504156  0.85291065  0.89890534     0.10500
S2367       S  0.86997390  0.97054995  0.86410764    -0.32800
S2368       S  0.84373568  0.81077875  0.91991848    -0.32800
H2369       H  0.85931116  0.81650821  0.95305984     0.28500
H2370       H  0.87391212  0.98492702  0.89778518     0.28500
H2371       H  0.82902913  0.91556908  0.83762500     0.19100
H2372       H  0.89076550  0.86526060  0.94221382     0.19100
C2373       C  0.85259372  0.65851436  0.85074137    -0.06700
C2374       C  0.87961054  0.63379231  0.83844391    -0.17800
C2375       C  0.89826391  0.60976698  0.86043849     0.10500
C2376       C  0.89525328  0.61259618  0.89736798    -0.06600
C2377       C  0.86926082  0.63718409  0.91073686    -0.17900
C2378       C  0.84723816  0.65914801  0.88819192     0.10500
S2379       S  0.92196685  0.57365317  0.83848934    -0.32800
S2380       S  0.81191774  0.68665976  0.90810830    -0.32800
H2381       H  0.81287769  0.67061330  0.94186425     0.28500
H2382       H  0.91034898  0.54747162  0.86299604     0.28500
H2383       H  0.88653255  0.63134694  0.81100749     0.19100
H2384       H  0.86605313  0.63905517  0.93903902     0.19100
C2385       C  0.63016130  0.85381316  0.84155549    -0.06700
C2386       C  0.61178532  0.83837103  0.87151031    -0.17800
C2387       C  0.59143687  0.85837004  0.89597574     0.10500
C2388       C  0.58785353  0.89534732  0.89132600    -0.06600
C2389       C  0.60467525  0.91143740  0.86209317    -0.17900
C2390       C  0.62641227  0.89184607  0.83803330     0.10500
S2391       S  0.57176914  0.83503540  0.93348533    -0.32800
S2392       S  0.65197462  0.91790736  0.80650655    -0.32800
H2393       H  0.63370790  0.95087356  0.81085632     0.28500
H2394       H  0.54150045  0.85824508  0.93823932     0.28500
H2395       H  0.61399778  0.81031575  0.87785089     0.19100
H2396       H  0.60244629  0.94017567  0.85942558     0.19100
C2397       C  0.85070164  0.86354136  0.65679310    -0.06700
C2398       C  0.87369945  0.89114278  0.66845680    -0.17800
C2399       C  0.89316164  0.91363824  0.64543207     0.10500
C2400       C  0.89173545  0.90852584  0.60880966    -0.06600
C2401       C  0.87010434  0.88105777  0.59629585    -0.17900
C2402       C  0.84986778  0.85847305  0.61911475     0.10500
S2403       S  0.91816749  0.95013909  0.66387929    -0.32800
S2404       S  0.82347786  0.82546627  0.59601429    -0.32800
H2405       H  0.80492262  0.80845483  0.62372115     0.28500
H2406       H  0.89955098  0.95097872  0.69655952     0.28500
H2407       H  0.87662316  0.89647472  0.69602063     0.19100
H2408       H  0.86898075  0.87706148  0.56810415     0.19100
loop_ 
_geom_bond_atom_site_label_1 
_geom_bond_atom_site_label_2 
_geom_bond_distance 
_geom_bond_site_symmetry_2 
_ccdc_geom_bond_type 
C1           N19   1.350       .  A
C1           C38   1.469       .  S
C1          C293   1.493       .  S
N2           N19   1.324       .  A
N2           N24   1.321       .  A
N2         Co641   2.085       .  S
C3           N28   1.336       .  A
C3           C41   1.465       .  S
C3           H48   1.080       .  S
H4           C45   1.081       .  S
C5           N29   1.347       .  A
C5            C9   1.468       .  S
C5           H34   1.081       .  S
Co6          N14   2.087       .  S
Co6         N325   2.110       .  S
Co6         N949   2.084       .  S
Co6         N624   2.104       .  S
Co6       Cl2157   2.477       .  S
N7           C45   1.340       .  A
N7           N14   1.322       .  A
N7        Co1212   2.093       .  S
Co8          N11   2.093   1_655  S
Co8        N1211   2.094       .  S
Co8        N1834   2.096       .  S
Co8         N617   2.092   1_655  S
Co8        Cl953   2.434       .  S
C9           N47   1.350       .  A
C9          C281   1.487       .  S
N10          N17   1.322       .  A
N10          N40   1.324       .  A
N10        Co645   2.078       .  S
N11          N29   1.321       .  A
N11          N47   1.326       .  A
N12          C41   1.358       .  A
N12          N22   1.332       .  A
H13          C38   1.081       .  S
N14          N35   1.326       .  A
N15          N33   1.316       .  A
N15          N20   1.320       .  A
N15        Co610   2.093   1_455  S
C16          N20   1.357       .  A
C16          C44   1.465       .  S
C16         C209   1.495       .  S
N17          C32   1.344       .  A
N17       Co1845   2.100   1_455  S
C18          N46   1.344       .  A
C18          C21   1.465       .  S
C18          H52   1.081       .  S
C21          N42   1.351       .  A
C21         C233   1.491       .  S
N22          N28   1.318       .  A
N22        Co608   2.106       .  S
N23          C49   1.339       .  A
N23          N25   1.320       .  A
N23       Co1243   2.076   1_455  S
N24          C38   1.349       .  A
N24        Co307   2.112       .  S
N25          N53   1.326       .  A
N25         Co43   2.093   1_545  S
H26          C49   1.081       .  S
H27          C44   1.077       .  S
N28       Co1814   2.084       .  S
N29        Co946   2.107       .  S
N30          N42   1.321       .  A
N30          N46   1.319       .  A
N30         Co39   2.097       .  S
C31          N35   1.351       .  A
C31          C45   1.457       .  S
C31         C257   1.472       .  S
C32          C51   1.461       .  S
C32          H36   1.082       .  S
N33          C44   1.339       .  A
N33        Co344   2.066   1_545  S
C37          N53   1.350       .  A
C37          C49   1.455       .  S
C37         C245   1.471       .  S
Co39        N604   2.087   1_545  S
Co39       N1823   2.102   1_545  S
Co39       N1227   2.080       .  S
Co39      Cl1254   2.440       .  S
N40          C51   1.347       .  A
C41         C269   1.502       .  S
Co43        N612   2.070       .  S
Co43        N932   2.107   1_554  S
Co43        N334   2.064   1_564  S
Co43        Cl50   2.462   1_465  S
N46        Co909   2.081       .  S
Cl50      Co2113   2.474       .  S
Cl50       Co911   2.433   1_554  S
Cl50      Co1243   2.439       .  S
C51         C218   1.474       .  S
C54         C170   1.618       .  S
C54         C185   1.610       .  S
C54         C194   1.623       .  S
C54         C206   1.582       .  S
C55         C146   1.568       .  S
C55         C158   1.602       .  S
C55         C197   1.607       .  S
C55         C278   1.591       .  S
C56         C125   1.576       .  S
C56         C134   1.613       .  S
C56         C149   1.622       .  S
C56         C221   1.573       .  S
C57         C110   1.597       .  S
C57         C122   1.620       .  S
C57         C173   1.620       .  S
C57         C242   1.567       .  S
C58          C86   1.601       .  S
C58          C98   1.614       .  S
C58         C182   1.617       .  S
C58         C266   1.582       .  S
C59          C74   1.611       .  S
C59          C89   1.587       .  S
C59         C113   1.626       .  S
C59         C230   1.564       .  S
C60          C62   1.594       .  S
C60          C77   1.609       .  S
C60         C137   1.612       .  S
C60         C290   1.582       .  S
C61          C65   1.637       .  S
C61         C101   1.607       .  S
C61         C161   1.605       .  S
C61         C254   1.572       .  S
C62          C63   1.423       .  A
C62          C67   1.418       .  A
C63          H72   1.083       .  S
C63          C64   1.423       .  A
C64          C65   1.428       .  A
C64          S68   1.795       .  S
C65          C66   1.432       .  A
C66          H73   1.079       .  S
C66          C67   1.417       .  A
C67          S69   1.803       .  S
S68          H71   1.406       .  S
S69          H70   1.406       .  S
C74          C75   1.399       .  A
C74          C79   1.447       .  A
C75          H84   1.057       .  S
C75          C76   1.381       .  A
C76          C77   1.427       .  A
C76          S80   1.816       .  S
C77          C78   1.419       .  A
C78          H85   1.077       .  S
C78          C79   1.430       .  A
C79          S81   1.808       .  S
S80          H83   1.386       .  S
S81          H82   1.406       .  S
C86          C87   1.431       .  A
C86          C91   1.446       .  A
C87          H96   1.083       .  S
C87          C88   1.405       .  A
C88          C89   1.408       .  A
C88          S92   1.797       .  S
C89          C90   1.398       .  A
C90          H97   1.083       .  S
C90          C91   1.399       .  A
C91          S93   1.795       .  S
S92          H95   1.401       .  S
S93          H94   1.409       .  S
C98          C99   1.417       .  A
C98         C103   1.439       .  A
C99         H108   1.066       .  S
C99         C100   1.393       .  A
C100        C101   1.417       .  A
C100        S104   1.799       .  S
C101        C102   1.419       .  A
C102        H109   1.075       .  S
C102        C103   1.431       .  A
C103        S105   1.812       .  S
S104        H107   1.404       .  S
S105        H106   1.397       .  S
C110        C111   1.417       .  A
C110        C115   1.403       .  A
C111        H120   1.081       .  S
C111        C112   1.428       .  A
C112        C113   1.453       .  A
C112        S116   1.802       .  S
C113        C114   1.424       .  A
C114        H121   1.066       .  S
C114        C115   1.390       .  A
C115        S117   1.806       .  S
S116        H119   1.401       .  S
S117        H118   1.400       .  S
C122        C123   1.407       .  A
C122        C127   1.452       .  A
C123        H132   1.050       .  S
C123        C124   1.375       .  A
C124        C125   1.399       .  A
C124        S128   1.807       .  S
C125        C126   1.422       .  A
C126        H133   1.082       .  S
C126        C127   1.441       .  A
C127        S129   1.801       .  S
S128        H131   1.402       .  S
S129        H130   1.406       .  S
C134        C135   1.431       .  A
C134        C139   1.402       .  A
C135        H144   1.079       .  S
C135        C136   1.446       .  A
C136        C137   1.458       .  A
C136        S140   1.807       .  S
C137        C138   1.384       .  A
C138        H145   1.048       .  S
C138        C139   1.376       .  A
C139        S141   1.794       .  S
S140        H143   1.396       .  S
S141        H142   1.399       .  S
C146        C147   1.418       .  A
C146        C151   1.425       .  A
C147        H156   1.080       .  S
C147        C148   1.439       .  A
C148        C149   1.450       .  A
C148        S152   1.805       .  S
C149        C150   1.402       .  A
C150        H157   1.060       .  S
C150        C151   1.364       .  A
C151        S153   1.814       .  S
S152        H155   1.407       .  S
S153        H154   1.357       .  S
C158        C159   1.425       .  A
C158        C163   1.433       .  A
C159        H168   1.082       .  S
C159        C160   1.447       .  A
C160        C161   1.444       .  A
C160        S164   1.803       .  S
C161        C162   1.396       .  A
C162        H169   1.072       .  S
C162        C163   1.376       .  A
C163        S165   1.823       .  S
S164        H167   1.407       .  S
S165        H166   1.376       .  S
C170        C171   1.430       .  A
C170        C175   1.437       .  A
C171        H180   1.065       .  S
C171        C172   1.419       .  A
C172        C173   1.411       .  A
C172        S176   1.804       .  S
C173        C174   1.404       .  A
C174        H181   1.072       .  S
C174        C175   1.423       .  A
C175        S177   1.797       .  S
S176        H179   1.407       .  S
S177        H178   1.403       .  S
C182        C183   1.413       .  A
C182        C187   1.436       .  A
C183        H192   1.077       .  S
C183        C184   1.402       .  A
C184        C185   1.425       .  A
C184        S188   1.791       .  S
C185        C186   1.425       .  A
C186        H193   1.075       .  S
C186        C187   1.431       .  A
C187        S189   1.806       .  S
S188        H191   1.391       .  S
S189        H190   1.407       .  S
C194        C195   1.410       .  A
C194        C199   1.452       .  A
C195        H204   1.066       .  S
C195        C196   1.421       .  A
C196        C197   1.435       .  A
C196        S200   1.809       .  S
C197        C198   1.402       .  A
C198        H205   1.072       .  S
C198        C199   1.427       .  A
C199        S201   1.795       .  S
S200        H203   1.406       .  S
S201        H202   1.387       .  S
C206        C207   1.417       .  A
C206        C211   1.442       .  A
C207        H216   1.064       .  S
C207        C208   1.408       .  A
C208        C209   1.412       .  A
C208        S212   1.806       .  S
C209        C210   1.392       .  A
C210        H217   1.083       .  S
C210        C211   1.394       .  A
C211        S213   1.804       .  S
S212        H215   1.407       .  S
S213        H214   1.408       .  S
C218        C219   1.388       .  A
C218        C223   1.405       .  A
C219        H228   1.084       .  S
C219        C220   1.404       .  A
C220        C221   1.448       .  A
C220        S224   1.813       .  S
C221        C222   1.419       .  A
C222        H229   1.084       .  S
C222        C223   1.403       .  A
C223        S225   1.804       .  S
S224        H227   1.408       .  S
S225        H226   1.405       .  S
C230        C231   1.421       .  A
C230        C235   1.433       .  A
C231        H240   1.074       .  S
C231        C232   1.391       .  A
C232        C233   1.409       .  A
C232        S236   1.815       .  S
C233        C234   1.408       .  A
C234        H241   1.083       .  S
C234        C235   1.412       .  A
C235        S237   1.816       .  S
S236        H239   1.407       .  S
S237        H238   1.395       .  S
C242        C243   1.422       .  A
C242        C247   1.435       .  A
C243        H252   1.079       .  S
C243        C244   1.395       .  A
C244        C245   1.400       .  A
C244        S248   1.805       .  S
C245        C246   1.395       .  A
C246        H253   1.083       .  S
C246        C247   1.408       .  A
C247        S249   1.808       .  S
S248        H251   1.406       .  S
S249        H250   1.407       .  S
C254        C255   1.418       .  A
C254        C259   1.440       .  A
C255        H264   1.071       .  S
C255        C256   1.395       .  A
C256        C257   1.401       .  A
C256        S260   1.807       .  S
C257        C258   1.394       .  A
C258        H265   1.083       .  S
C258        C259   1.409       .  A
C259        S261   1.808       .  S
S260        H263   1.405       .  S
S261        H262   1.407       .  S
C266        C267   1.421       .  A
C266        C271   1.433       .  A
C267        H276   1.074       .  S
C267        C268   1.391       .  A
C268        C269   1.411       .  A
C268        S272   1.806       .  S
C269        C270   1.407       .  A
C270        H277   1.082       .  S
C270        C271   1.422       .  A
C271        S273   1.804       .  S
S272        H275   1.407       .  S
S273        H274   1.406       .  S
C278        C279   1.431       .  A
C278        C283   1.434       .  A
C279        H288   1.078       .  S
C279        C280   1.404       .  A
C280        C281   1.401       .  A
C280        S284   1.805       .  S
C281        C282   1.396       .  A
C282        H289   1.083       .  S
C282        C283   1.412       .  A
C283        S285   1.792       .  S
S284        H287   1.406       .  S
S285        H286   1.407       .  S
C290        C291   1.423       .  A
C290        C295   1.446       .  A
C291        H300   1.077       .  S
C291        C292   1.398       .  A
C292        C293   1.408       .  A
C292        S296   1.805       .  S
C293        C294   1.400       .  A
C294        H301   1.084       .  S
C294        C295   1.413       .  A
C295        S297   1.820       .  S
S296        H299   1.407       .  S
S297        H298   1.394       .  S
C302        N320   1.349       .  A
C302        C339   1.468       .  S
C302        C594   1.492       .  S
N303        N320   1.324       .  A
N303        N325   1.321       .  A
N303       Co942   2.085       .  S
C304        N329   1.337       .  A
C304        C342   1.466       .  S
C304        H349   1.080       .  S
H305        C346   1.081       .  S
C306        N330   1.346       .  A
C306        C310   1.467       .  S
C306        H335   1.081       .  S
Co307       N315   2.083   1_554  S
Co307       N648   2.083       .  S
Co307       N925   2.105   1_554  S
Co307     Cl1856   2.477       .  S
N308        C346   1.340       .  A
N308        N315   1.322       .  A
N308      Co1513   2.092       .  S
Co309      N1512   2.096       .  S
Co309       N312   2.085   1_655  S
Co309      N2135   2.088       .  S
Co309       N918   2.092   1_655  S
Co309      Cl652   2.435   1_556  S
C310        N348   1.348       .  A
C310        C582   1.484       .  S
N311        N318   1.322       .  A
N311        N341   1.324       .  A
N311       Co946   2.075       .  S
N312        N330   1.321       .  A
N312        N348   1.325       .  A
N313        C342   1.358       .  A
N313        N323   1.332       .  A
H314        C339   1.082       .  S
N315        N336   1.325       .  A
N316        N334   1.315       .  A
N316        N321   1.321       .  A
N316       Co911   2.093   1_455  S
C317        N321   1.358       .  A
C317        C345   1.465       .  S
C317        C510   1.496       .  S
N318        C333   1.344       .  A
N318      Co2146   2.100   1_455  S
C319        N347   1.343       .  A
C319        C322   1.465       .  S
C319        H353   1.081       .  S
C322        N343   1.352       .  A
C322        C534   1.491       .  S
N323        N329   1.318       .  A
N323       Co909   2.106   1_556  S
N324        C350   1.341       .  A
N324        N326   1.319       .  A
N324      Co1544   2.081   1_455  S
N325        C339   1.349       .  A
N326        N354   1.327       .  A
N326       Co344   2.094   1_545  S
H327        C350   1.081       .  S
H328        C345   1.077       .  S
N329      Co2115   2.085       .  S
N330       Co645   2.104   1_556  S
N331        N343   1.322       .  A
N331        N347   1.319       .  A
N331       Co340   2.098       .  S
C332        N336   1.350       .  A
C332        C346   1.457       .  S
C332        C558   1.470       .  S
C333        C352   1.462       .  S
C333        H337   1.082       .  S
N334        C345   1.339       .  A
C338        N354   1.351       .  A
C338        C350   1.457       .  S
C338        C546   1.476       .  S
Co340       N905   2.087   1_545  S
Co340      N2124   2.102   1_545  S
Co340      N1528   2.080       .  S
Co340     Cl1555   2.440       .  S
N341        C352   1.346       .  A
C342        C570   1.502       .  S
Co344       N913   2.076       .  S
Co344       N631   2.102       .  S
Co344      Cl351   2.465   1_465  S
N347       Co608   2.081       .  S
Cl351     Co1812   2.477       .  S
Cl351      Co610   2.433       .  S
Cl351     Co1544   2.437       .  S
C352        C519   1.473       .  S
C355        C471   1.620       .  S
C355        C486   1.612       .  S
C355        C495   1.625       .  S
C355        C507   1.583       .  S
C356        C447   1.568       .  S
C356        C459   1.601       .  S
C356        C498   1.608       .  S
C356        C579   1.589       .  S
C357        C426   1.576       .  S
C357        C435   1.613       .  S
C357        C450   1.621       .  S
C357        C522   1.572       .  S
C358        C411   1.600       .  S
C358        C423   1.620       .  S
C358        C474   1.620       .  S
C358        C543   1.570       .  S
C359        C387   1.599       .  S
C359        C399   1.614       .  S
C359        C483   1.618       .  S
C359        C567   1.582       .  S
C360        C375   1.610       .  S
C360        C390   1.586       .  S
C360        C414   1.629       .  S
C360        C531   1.566       .  S
C361        C363   1.594       .  S
C361        C378   1.607       .  S
C361        C438   1.611       .  S
C361        C591   1.581       .  S
C362        C366   1.638       .  S
C362        C402   1.605       .  S
C362        C462   1.604       .  S
C362        C555   1.570       .  S
C363        C364   1.424       .  A
C363        C368   1.418       .  A
C364        H373   1.083       .  S
C364        C365   1.422       .  A
C365        C366   1.427       .  A
C365        S369   1.796       .  S
C366        C367   1.433       .  A
C367        H374   1.079       .  S
C367        C368   1.417       .  A
C368        S370   1.803       .  S
S369        H372   1.405       .  S
S370        H371   1.406       .  S
C375        C376   1.400       .  A
C375        C380   1.446       .  A
C376        H385   1.051       .  S
C376        C377   1.381       .  A
C377        C378   1.425       .  A
C377        S381   1.816       .  S
C378        C379   1.419       .  A
C379        H386   1.077       .  S
C379        C380   1.429       .  A
C380        S382   1.808       .  S
S381        H384   1.385       .  S
S382        H383   1.407       .  S
C387        C388   1.430       .  A
C387        C392   1.445       .  A
C388        H397   1.082       .  S
C388        C389   1.404       .  A
C389        C390   1.407       .  A
C389        S393   1.798       .  S
C390        C391   1.400       .  A
C391        H398   1.083       .  S
C391        C392   1.399       .  A
C392        S394   1.795       .  S
S393        H396   1.399       .  S
S394        H395   1.409       .  S
C399        C400   1.417       .  A
C399        C404   1.438       .  A
C400        H409   1.066       .  S
C400        C401   1.392       .  A
C401        C402   1.419       .  A
C401        S405   1.800       .  S
C402        C403   1.419       .  A
C403        H410   1.075       .  S
C403        C404   1.430       .  A
C404        S406   1.812       .  S
S405        H408   1.405       .  S
S406        H407   1.396       .  S
C411        C412   1.417       .  A
C411        C416   1.406       .  A
C412        H421   1.081       .  S
C412        C413   1.429       .  A
C413        C414   1.452       .  A
C413        S417   1.801       .  S
C414        C415   1.425       .  A
C415        H422   1.065       .  S
C415        C416   1.392       .  A
C416        S418   1.806       .  S
S417        H420   1.400       .  S
S418        H419   1.400       .  S
C423        C424   1.408       .  A
C423        C428   1.451       .  A
C424        H433   1.050       .  S
C424        C425   1.375       .  A
C425        C426   1.399       .  A
C425        S429   1.807       .  S
C426        C427   1.422       .  A
C427        H434   1.082       .  S
C427        C428   1.439       .  A
C428        S430   1.800       .  S
S429        H432   1.402       .  S
S430        H431   1.407       .  S
C435        C436   1.430       .  A
C435        C440   1.401       .  A
C436        H445   1.079       .  S
C436        C437   1.445       .  A
C437        C438   1.458       .  A
C437        S441   1.806       .  S
C438        C439   1.385       .  A
C439        H446   1.049       .  S
C439        C440   1.376       .  A
C440        S442   1.795       .  S
S441        H444   1.396       .  S
S442        H443   1.399       .  S
C447        C448   1.418       .  A
C447        C452   1.424       .  A
C448        H457   1.080       .  S
C448        C449   1.439       .  A
C449        C450   1.450       .  A
C449        S453   1.805       .  S
C450        C451   1.402       .  A
C451        H458   1.061       .  S
C451        C452   1.363       .  A
C452        S454   1.813       .  S
S453        H456   1.407       .  S
S454        H455   1.357       .  S
C459        C460   1.426       .  A
C459        C464   1.433       .  A
C460        H469   1.081       .  S
C460        C461   1.447       .  A
C461        C462   1.444       .  A
C461        S465   1.805       .  S
C462        C463   1.394       .  A
C463        H470   1.072       .  S
C463        C464   1.374       .  A
C464        S466   1.824       .  S
S465        H468   1.406       .  S
S466        H467   1.375       .  S
C471        C472   1.430       .  A
C471        C476   1.438       .  A
C472        H481   1.064       .  S
C472        C473   1.420       .  A
C473        C474   1.411       .  A
C473        S477   1.804       .  S
C474        C475   1.404       .  A
C475        H482   1.073       .  S
C475        C476   1.424       .  A
C476        S478   1.798       .  S
S477        H480   1.407       .  S
S478        H479   1.403       .  S
C483        C484   1.414       .  A
C483        C488   1.435       .  A
C484        H493   1.077       .  S
C484        C485   1.403       .  A
C485        C486   1.425       .  A
C485        S489   1.790       .  S
C486        C487   1.426       .  A
C487        H494   1.074       .  S
C487        C488   1.432       .  A
C488        S490   1.808       .  S
S489        H492   1.391       .  S
S490        H491   1.406       .  S
C495        C496   1.411       .  A
C495        C500   1.453       .  A
C496        H505   1.065       .  S
C496        C497   1.419       .  A
C497        C498   1.434       .  A
C497        S501   1.808       .  S
C498        C499   1.403       .  A
C499        H506   1.073       .  S
C499        C500   1.428       .  A
C500        S502   1.794       .  S
S501        H504   1.407       .  S
S502        H503   1.387       .  S
C507        C508   1.417       .  A
C507        C512   1.442       .  A
C508        H517   1.064       .  S
C508        C509   1.409       .  A
C509        C510   1.413       .  A
C509        S513   1.807       .  S
C510        C511   1.392       .  A
C511        H518   1.082       .  S
C511        C512   1.394       .  A
C512        S514   1.804       .  S
S513        H516   1.407       .  S
S514        H515   1.408       .  S
C519        C520   1.389       .  A
C519        C524   1.407       .  A
C520        H529   1.084       .  S
C520        C521   1.403       .  A
C521        C522   1.447       .  A
C521        S525   1.812       .  S
C522        C523   1.419       .  A
C523        H530   1.083       .  S
C523        C524   1.403       .  A
C524        S526   1.806       .  S
S525        H528   1.408       .  S
S526        H527   1.402       .  S
C531        C532   1.423       .  A
C531        C536   1.432       .  A
C532        H541   1.075       .  S
C532        C533   1.393       .  A
C533        C534   1.408       .  A
C533        S537   1.813       .  S
C534        C535   1.407       .  A
C535        H542   1.083       .  S
C535        C536   1.411       .  A
C536        S538   1.816       .  S
S537        H540   1.407       .  S
S538        H539   1.395       .  S
C543        C544   1.423       .  A
C543        C548   1.435       .  A
C544        H553   1.079       .  S
C544        C545   1.397       .  A
C545        C546   1.401       .  A
C545        S549   1.805       .  S
C546        C547   1.396       .  A
C547        H554   1.083       .  S
C547        C548   1.410       .  A
C548        S550   1.808       .  S
S549        H552   1.406       .  S
S550        H551   1.406       .  S
C555        C556   1.417       .  A
C555        C560   1.440       .  A
C556        H565   1.071       .  S
C556        C557   1.394       .  A
C557        C558   1.401       .  A
C557        S561   1.807       .  S
C558        C559   1.394       .  A
C559        H566   1.083       .  S
C559        C560   1.409       .  A
C560        S562   1.809       .  S
S561        H564   1.405       .  S
S562        H563   1.406       .  S
C567        C568   1.422       .  A
C567        C572   1.432       .  A
C568        H577   1.074       .  S
C568        C569   1.391       .  A
C569        C570   1.410       .  A
C569        S573   1.806       .  S
C570        C571   1.408       .  A
C571        H578   1.082       .  S
C571        C572   1.422       .  A
C572        S574   1.804       .  S
S573        H576   1.408       .  S
S574        H575   1.406       .  S
C579        C580   1.431       .  A
C579        C584   1.435       .  A
C580        H589   1.078       .  S
C580        C581   1.403       .  A
C581        C582   1.400       .  A
C581        S585   1.805       .  S
C582        C583   1.394       .  A
C583        H590   1.083       .  S
C583        C584   1.411       .  A
C584        S586   1.794       .  S
S585        H588   1.406       .  S
S586        H587   1.406       .  S
C591        C592   1.423       .  A
C591        C596   1.446       .  A
C592        H601   1.074       .  S
C592        C593   1.401       .  A
C593        C594   1.407       .  A
C593        S597   1.811       .  S
C594        C595   1.399       .  A
C595        H602   1.084       .  S
C595        C596   1.411       .  A
C596        S598   1.820       .  S
S597        H600   1.407       .  S
S598        H599   1.394       .  S
C603        N621   1.350       .  A
C603        C640   1.468       .  S
C603        C895   1.494       .  S
N604        N621   1.325       .  A
N604        N626   1.322       .  A
C605        N630   1.337       .  A
C605        C643   1.466       .  S
C605        H650   1.080       .  S
H606        C647   1.081       .  S
C607        N631   1.346       .  A
C607        C611   1.466       .  S
C607        H636   1.081       .  S
Co608       N927   2.110   1_545  S
Co608       N616   2.083   1_545  S
Co608     Cl1555   2.476       .  S
N609        C647   1.340       .  A
N609        N616   1.322       .  A
N609      Co1814   2.094   1_565  S
Co610      N1813   2.097   1_545  S
Co610       N613   2.088   1_645  S
Co610      N1232   2.091       .  S
C611        N649   1.349       .  A
C611        C883   1.484       .  S
N612        N619   1.323       .  A
N612        N642   1.322       .  A
N613        N631   1.321       .  A
N613        N649   1.326       .  A
N614        C643   1.357       .  A
N614        N624   1.332       .  A
H615        C640   1.081       .  S
N616        N637   1.325       .  A
N617        N635   1.316       .  A
N617        N622   1.321       .  A
C618        N622   1.358       .  A
C618        C646   1.465       .  S
C618        C811   1.496       .  S
N619        C634   1.343       .  A
N619      Co1243   2.097   1_465  S
C620        N648   1.344       .  A
C620        C623   1.466       .  S
C620        H654   1.081       .  S
C623        N644   1.353       .  A
C623        C835   1.494       .  S
N624        N630   1.318       .  A
N625        C651   1.341       .  A
N625        N627   1.320       .  A
N625      Co1845   2.082   1_455  S
N626        C640   1.349       .  A
N626       Co909   2.112   1_565  S
N627        N655   1.327       .  A
N627       Co645   2.096       .  S
H628        C651   1.081       .  S
H629        C646   1.076       .  S
N630      Co1212   2.088       .  S
N632        N644   1.322       .  A
N632        N648   1.319       .  A
N632       Co641   2.100       .  S
C633        N637   1.350       .  A
C633        C647   1.458       .  S
C633        C859   1.470       .  S
C634        C653   1.460       .  S
C634        H638   1.082       .  S
N635        C646   1.338       .  A
N635       Co946   2.065       .  S
C639        N655   1.351       .  A
C639        C651   1.457       .  S
C639        C847   1.476       .  S
Co641      N1221   2.103       .  S
Co641      N1829   2.079       .  S
Co641     Cl1856   2.439       .  S
N642        C653   1.344       .  A
C643        C871   1.502       .  S
Co645       N936   2.066   1_554  S
Co645      Cl652   2.465   1_455  S
Cl652     Co1511   2.475       .  S
Cl652     Co1845   2.440       .  S
C653        C820   1.468       .  S
C656        C772   1.620       .  S
C656        C787   1.611       .  S
C656        C796   1.624       .  S
C656        C808   1.583       .  S
C657        C748   1.563       .  S
C657        C760   1.601       .  S
C657        C799   1.608       .  S
C657        C880   1.589       .  S
C658        C727   1.574       .  S
C658        C736   1.614       .  S
C658        C751   1.618       .  S
C658        C823   1.568       .  S
C659        C712   1.601       .  S
C659        C724   1.618       .  S
C659        C775   1.620       .  S
C659        C844   1.570       .  S
C660        C688   1.601       .  S
C660        C700   1.616       .  S
C660        C784   1.618       .  S
C660        C868   1.582       .  S
C661        C676   1.611       .  S
C661        C691   1.589       .  S
C661        C715   1.629       .  S
C661        C832   1.567       .  S
C662        C664   1.593       .  S
C662        C679   1.610       .  S
C662        C739   1.611       .  S
C662        C892   1.582       .  S
C663        C667   1.637       .  S
C663        C703   1.607       .  S
C663        C763   1.604       .  S
C663        C856   1.570       .  S
C664        C665   1.423       .  A
C664        C669   1.418       .  A
C665        H674   1.083       .  S
C665        C666   1.422       .  A
C666        C667   1.427       .  A
C666        S670   1.795       .  S
C667        C668   1.432       .  A
C668        H675   1.080       .  S
C668        C669   1.416       .  A
C669        S671   1.801       .  S
S670        H673   1.406       .  S
S671        H672   1.407       .  S
C676        C677   1.400       .  A
C676        C681   1.447       .  A
C677        H686   1.055       .  S
C677        C678   1.383       .  A
C678        C679   1.427       .  A
C678        S682   1.816       .  S
C679        C680   1.419       .  A
C680        H687   1.077       .  S
C680        C681   1.430       .  A
C681        S683   1.808       .  S
S682        H685   1.385       .  S
S683        H684   1.407       .  S
C688        C689   1.430       .  A
C688        C693   1.445       .  A
C689        H698   1.083       .  S
C689        C690   1.405       .  A
C690        C691   1.409       .  A
C690        S694   1.798       .  S
C691        C692   1.400       .  A
C692        H699   1.083       .  S
C692        C693   1.400       .  A
C693        S695   1.795       .  S
S694        H697   1.399       .  S
S695        H696   1.409       .  S
C700        C701   1.417       .  A
C700        C705   1.439       .  A
C701        H710   1.066       .  S
C701        C702   1.393       .  A
C702        C703   1.417       .  A
C702        S706   1.797       .  S
C703        C704   1.419       .  A
C704        H711   1.075       .  S
C704        C705   1.431       .  A
C705        S707   1.811       .  S
S706        H709   1.405       .  S
S707        H708   1.397       .  S
C712        C713   1.417       .  A
C712        C717   1.407       .  A
C713        H722   1.081       .  S
C713        C714   1.429       .  A
C714        C715   1.452       .  A
C714        S718   1.801       .  S
C715        C716   1.424       .  A
C716        H723   1.066       .  S
C716        C717   1.392       .  A
C717        S719   1.806       .  S
S718        H721   1.400       .  S
S719        H720   1.402       .  S
C724        C725   1.407       .  A
C724        C729   1.452       .  A
C725        H734   1.050       .  S
C725        C726   1.374       .  A
C726        C727   1.400       .  A
C726        S730   1.808       .  S
C727        C728   1.422       .  A
C728        H735   1.082       .  S
C728        C729   1.440       .  A
C729        S731   1.801       .  S
S730        H733   1.401       .  S
S731        H732   1.407       .  S
C736        C737   1.430       .  A
C736        C741   1.401       .  A
C737        H746   1.079       .  S
C737        C738   1.445       .  A
C738        C739   1.458       .  A
C738        S742   1.807       .  S
C739        C740   1.385       .  A
C740        H747   1.049       .  S
C740        C741   1.376       .  A
C741        S743   1.795       .  S
S742        H745   1.395       .  S
S743        H744   1.399       .  S
C748        C749   1.417       .  A
C748        C753   1.424       .  A
C749        H758   1.080       .  S
C749        C750   1.438       .  A
C750        C751   1.451       .  A
C750        S754   1.808       .  S
C751        C752   1.401       .  A
C752        H759   1.060       .  S
C752        C753   1.360       .  A
C753        S755   1.815       .  S
S754        H757   1.406       .  S
S755        H756   1.358       .  S
C760        C761   1.424       .  A
C760        C765   1.435       .  A
C761        H770   1.082       .  S
C761        C762   1.445       .  A
C762        C763   1.444       .  A
C762        S766   1.802       .  S
C763        C764   1.396       .  A
C764        H771   1.072       .  S
C764        C765   1.375       .  A
C765        S767   1.825       .  S
S766        H769   1.407       .  S
S767        H768   1.377       .  S
C772        C773   1.430       .  A
C772        C777   1.439       .  A
C773        H782   1.064       .  S
C773        C774   1.419       .  A
C774        C775   1.411       .  A
C774        S778   1.804       .  S
C775        C776   1.403       .  A
C776        H783   1.072       .  S
C776        C777   1.423       .  A
C777        S779   1.799       .  S
S778        H781   1.407       .  S
S779        H780   1.401       .  S
C784        C785   1.412       .  A
C784        C789   1.435       .  A
C785        H794   1.077       .  S
C785        C786   1.402       .  A
C786        C787   1.425       .  A
C786        S790   1.790       .  S
C787        C788   1.426       .  A
C788        H795   1.074       .  S
C788        C789   1.432       .  A
C789        S791   1.807       .  S
S790        H793   1.391       .  S
S791        H792   1.406       .  S
C796        C797   1.409       .  A
C796        C801   1.452       .  A
C797        H806   1.066       .  S
C797        C798   1.418       .  A
C798        C799   1.435       .  A
C798        S802   1.807       .  S
C799        C800   1.403       .  A
C800        H807   1.072       .  S
C800        C801   1.429       .  A
C801        S803   1.795       .  S
S802        H805   1.408       .  S
S803        H804   1.387       .  S
C808        C809   1.415       .  A
C808        C813   1.442       .  A
C809        H818   1.064       .  S
C809        C810   1.408       .  A
C810        C811   1.414       .  A
C810        S814   1.806       .  S
C811        C812   1.392       .  A
C812        H819   1.083       .  S
C812        C813   1.394       .  A
C813        S815   1.802       .  S
S814        H817   1.407       .  S
S815        H816   1.408       .  S
C820        C821   1.387       .  A
C820        C825   1.404       .  A
C821        H830   1.084       .  S
C821        C822   1.401       .  A
C822        C823   1.448       .  A
C822        S826   1.814       .  S
C823        C824   1.419       .  A
C824        H831   1.084       .  S
C824        C825   1.400       .  A
C825        S827   1.804       .  S
S826        H829   1.408       .  S
S827        H828   1.405       .  S
C832        C833   1.423       .  A
C832        C837   1.433       .  A
C833        H842   1.075       .  S
C833        C834   1.394       .  A
C834        C835   1.408       .  A
C834        S838   1.813       .  S
C835        C836   1.408       .  A
C836        H843   1.083       .  S
C836        C837   1.412       .  A
C837        S839   1.816       .  S
S838        H841   1.407       .  S
S839        H840   1.395       .  S
C844        C845   1.423       .  A
C844        C849   1.434       .  A
C845        H854   1.079       .  S
C845        C846   1.398       .  A
C846        C847   1.401       .  A
C846        S850   1.806       .  S
C847        C848   1.396       .  A
C848        H855   1.083       .  S
C848        C849   1.409       .  A
C849        S851   1.806       .  S
S850        H853   1.406       .  S
S851        H852   1.407       .  S
C856        C857   1.418       .  A
C856        C861   1.439       .  A
C857        H866   1.071       .  S
C857        C858   1.394       .  A
C858        C859   1.401       .  A
C858        S862   1.807       .  S
C859        C860   1.394       .  A
C860        H867   1.083       .  S
C860        C861   1.409       .  A
C861        S863   1.808       .  S
S862        H865   1.405       .  S
S863        H864   1.406       .  S
C868        C869   1.422       .  A
C868        C873   1.432       .  A
C869        H878   1.074       .  S
C869        C870   1.391       .  A
C870        C871   1.410       .  A
C870        S874   1.806       .  S
C871        C872   1.408       .  A
C872        H879   1.082       .  S
C872        C873   1.422       .  A
C873        S875   1.804       .  S
S874        H877   1.408       .  S
S875        H876   1.407       .  S
C880        C881   1.431       .  A
C880        C885   1.435       .  A
C881        H890   1.077       .  S
C881        C882   1.403       .  A
C882        C883   1.401       .  A
C882        S886   1.806       .  S
C883        C884   1.395       .  A
C884        H891   1.083       .  S
C884        C885   1.411       .  A
C885        S887   1.793       .  S
S886        H889   1.405       .  S
S887        H888   1.406       .  S
C892        C893   1.424       .  A
C892        C897   1.446       .  A
C893        H902   1.077       .  S
C893        C894   1.399       .  A
C894        C895   1.407       .  A
C894        S898   1.805       .  S
C895        C896   1.400       .  A
C896        H903   1.084       .  S
C896        C897   1.413       .  A
C897        S899   1.820       .  S
S898        H901   1.408       .  S
S899        H900   1.394       .  S
C904        N922   1.350       .  A
C904        C941   1.468       .  S
C904       C1196   1.492       .  S
N905        N922   1.325       .  A
N905        N927   1.321       .  A
C906        N931   1.337       .  A
C906        C944   1.467       .  S
C906        H951   1.080       .  S
H907        C948   1.081       .  S
C908        N932   1.347       .  A
C908        C912   1.468       .  S
C908        H937   1.081       .  S
Co909       N917   2.083   1_544  S
Co909     Cl1254   2.475       .  S
N910        C948   1.340       .  A
N910        N917   1.322       .  A
N910      Co2115   2.095   1_565  S
Co911      N2114   2.093   1_545  S
Co911       N914   2.085   1_645  S
Co911      N1533   2.086       .  S
C912        N950   1.348       .  A
C912       C1184   1.485       .  S
N913        N920   1.322       .  A
N913        N943   1.324       .  A
N914        N932   1.321       .  A
N914        N950   1.325       .  A
N915        C944   1.358       .  A
N915        N925   1.332       .  A
H916        C941   1.082       .  S
N917        N938   1.325       .  A
N918        N936   1.316       .  A
N918        N923   1.321       .  A
C919        N923   1.357       .  A
C919        C947   1.464       .  S
C919       C1112   1.494       .  S
N920        C935   1.345       .  A
N920      Co1544   2.103   1_465  S
C921        N949   1.344       .  A
C921        C924   1.465       .  S
C921        H955   1.081       .  S
C924        N945   1.352       .  A
C924       C1136   1.492       .  S
N925        N931   1.318       .  A
N926        C952   1.340       .  A
N926        N928   1.320       .  A
N926      Co2146   2.084   1_455  S
N927        C941   1.348       .  A
N928        N956   1.328       .  A
N928       Co946   2.096       .  S
H929        C952   1.081       .  S
H930        C947   1.076       .  S
N931      Co1513   2.089       .  S
N933        N945   1.322       .  A
N933        N949   1.319       .  A
N933       Co942   2.097       .  S
C934        N938   1.349       .  A
C934        C948   1.458       .  S
C934       C1160   1.470       .  S
C935        C954   1.463       .  S
C935        H939   1.082       .  S
N936        C947   1.338       .  A
C940        N956   1.351       .  A
C940        C952   1.457       .  S
C940       C1148   1.477       .  S
Co942      N1522   2.103       .  S
Co942      N2130   2.083       .  S
Co942     Cl2157   2.439       .  S
N943        C954   1.346       .  A
C944       C1172   1.504       .  S
Co946      Cl953   2.467   1_455  S
Cl953     Co1210   2.478       .  S
Cl953     Co2146   2.435       .  S
C954       C1121   1.475       .  S
C957       C1073   1.619       .  S
C957       C1088   1.612       .  S
C957       C1097   1.623       .  S
C957       C1109   1.582       .  S
C958       C1049   1.567       .  S
C958       C1061   1.602       .  S
C958       C1100   1.605       .  S
C958       C1181   1.591       .  S
C959       C1028   1.574       .  S
C959       C1037   1.615       .  S
C959       C1052   1.620       .  S
C959       C1124   1.575       .  S
C960       C1013   1.602       .  S
C960       C1025   1.618       .  S
C960       C1076   1.621       .  S
C960       C1145   1.570       .  S
C961        C989   1.601       .  S
C961       C1001   1.616       .  S
C961       C1085   1.618       .  S
C961       C1169   1.583       .  S
C962        C977   1.608       .  S
C962        C992   1.589       .  S
C962       C1016   1.631       .  S
C962       C1133   1.566       .  S
C963        C965   1.593       .  S
C963        C980   1.606       .  S
C963       C1040   1.614       .  S
C963       C1193   1.581       .  S
C964        C968   1.636       .  S
C964       C1004   1.606       .  S
C964       C1064   1.603       .  S
C964       C1157   1.569       .  S
C965        C966   1.424       .  A
C965        C970   1.418       .  A
C966        H975   1.083       .  S
C966        C967   1.422       .  A
C967        C968   1.427       .  A
C967        S971   1.796       .  S
C968        C969   1.432       .  A
C969        H976   1.079       .  S
C969        C970   1.417       .  A
C970        S972   1.802       .  S
S971        H974   1.406       .  S
S972        H973   1.406       .  S
C977        C978   1.399       .  A
C977        C982   1.447       .  A
C978        H987   1.053       .  S
C978        C979   1.380       .  A
C979        C980   1.426       .  A
C979        S983   1.817       .  S
C980        C981   1.418       .  A
C981        H988   1.078       .  S
C981        C982   1.429       .  A
C982        S984   1.806       .  S
S983        H986   1.386       .  S
S984        H985   1.407       .  S
C989        C990   1.431       .  A
C989        C994   1.444       .  A
C990        H999   1.083       .  S
C990        C991   1.407       .  A
C991        C992   1.409       .  A
C991        S995   1.798       .  S
C992        C993   1.401       .  A
C993       H1000   1.083       .  S
C993        C994   1.400       .  A
C994        S996   1.794       .  S
S995        H998   1.399       .  S
S996        H997   1.408       .  S
C1001      C1002   1.418       .  A
C1001      C1006   1.439       .  A
C1002      H1011   1.065       .  S
C1002      C1003   1.393       .  A
C1003      C1004   1.417       .  A
C1003      S1007   1.798       .  S
C1004      C1005   1.418       .  A
C1005      H1012   1.075       .  S
C1005      C1006   1.430       .  A
C1006      S1008   1.811       .  S
S1007      H1010   1.405       .  S
S1008      H1009   1.396       .  S
C1013      C1014   1.417       .  A
C1013      C1018   1.406       .  A
C1014      H1023   1.081       .  S
C1014      C1015   1.429       .  A
C1015      C1016   1.452       .  A
C1015      S1019   1.800       .  S
C1016      C1017   1.425       .  A
C1017      H1024   1.065       .  S
C1017      C1018   1.393       .  A
C1018      S1020   1.806       .  S
S1019      H1022   1.401       .  S
S1020      H1021   1.400       .  S
C1025      C1026   1.408       .  A
C1025      C1030   1.451       .  A
C1026      H1035   1.050       .  S
C1026      C1027   1.375       .  A
C1027      C1028   1.400       .  A
C1027      S1031   1.808       .  S
C1028      C1029   1.422       .  A
C1029      H1036   1.082       .  S
C1029      C1030   1.439       .  A
C1030      S1032   1.801       .  S
S1031      H1034   1.402       .  S
S1032      H1033   1.406       .  S
C1037      C1038   1.429       .  A
C1037      C1042   1.403       .  A
C1038      H1047   1.079       .  S
C1038      C1039   1.446       .  A
C1039      C1040   1.459       .  A
C1039      S1043   1.806       .  S
C1040      C1041   1.386       .  A
C1041      H1048   1.048       .  S
C1041      C1042   1.377       .  A
C1042      S1044   1.796       .  S
S1043      H1046   1.395       .  S
S1044      H1045   1.399       .  S
C1049      C1050   1.417       .  A
C1049      C1054   1.426       .  A
C1050      H1059   1.080       .  S
C1050      C1051   1.437       .  A
C1051      C1052   1.450       .  A
C1051      S1055   1.804       .  S
C1052      C1053   1.402       .  A
C1053      H1060   1.060       .  S
C1053      C1054   1.362       .  A
C1054      S1056   1.814       .  S
S1055      H1058   1.408       .  S
S1056      H1057   1.358       .  S
C1061      C1062   1.425       .  A
C1061      C1066   1.433       .  A
C1062      H1071   1.082       .  S
C1062      C1063   1.446       .  A
C1063      C1064   1.444       .  A
C1063      S1067   1.802       .  S
C1064      C1065   1.395       .  A
C1065      H1072   1.072       .  S
C1065      C1066   1.375       .  A
C1066      S1068   1.822       .  S
S1067      H1070   1.407       .  S
S1068      H1069   1.375       .  S
C1073      C1074   1.429       .  A
C1073      C1078   1.439       .  A
C1074      H1083   1.064       .  S
C1074      C1075   1.418       .  A
C1075      C1076   1.412       .  A
C1075      S1079   1.804       .  S
C1076      C1077   1.404       .  A
C1077      H1084   1.074       .  S
C1077      C1078   1.425       .  A
C1078      S1080   1.799       .  S
S1079      H1082   1.407       .  S
S1080      H1081   1.402       .  S
C1085      C1086   1.413       .  A
C1085      C1090   1.435       .  A
C1086      H1095   1.077       .  S
C1086      C1087   1.402       .  A
C1087      C1088   1.426       .  A
C1087      S1091   1.791       .  S
C1088      C1089   1.426       .  A
C1089      H1096   1.075       .  S
C1089      C1090   1.433       .  A
C1090      S1092   1.805       .  S
S1091      H1094   1.391       .  S
S1092      H1093   1.407       .  S
C1097      C1098   1.410       .  A
C1097      C1102   1.453       .  A
C1098      H1107   1.066       .  S
C1098      C1099   1.418       .  A
C1099      C1100   1.434       .  A
C1099      S1103   1.808       .  S
C1100      C1101   1.401       .  A
C1101      H1108   1.072       .  S
C1101      C1102   1.427       .  A
C1102      S1104   1.795       .  S
S1103      H1106   1.407       .  S
S1104      H1105   1.387       .  S
C1109      C1110   1.415       .  A
C1109      C1114   1.444       .  A
C1110      H1119   1.063       .  S
C1110      C1111   1.407       .  A
C1111      C1112   1.412       .  A
C1111      S1115   1.805       .  S
C1112      C1113   1.391       .  A
C1113      H1120   1.083       .  S
C1113      C1114   1.394       .  A
C1114      S1116   1.803       .  S
S1115      H1118   1.407       .  S
S1116      H1117   1.409       .  S
C1121      C1122   1.388       .  A
C1121      C1126   1.405       .  A
C1122      H1131   1.084       .  S
C1122      C1123   1.405       .  A
C1123      C1124   1.450       .  A
C1123      S1127   1.814       .  S
C1124      C1125   1.419       .  A
C1125      H1132   1.083       .  S
C1125      C1126   1.403       .  A
C1126      S1128   1.803       .  S
S1127      H1130   1.408       .  S
S1128      H1129   1.405       .  S
C1133      C1134   1.422       .  A
C1133      C1138   1.432       .  A
C1134      H1143   1.074       .  S
C1134      C1135   1.394       .  A
C1135      C1136   1.409       .  A
C1135      S1139   1.815       .  S
C1136      C1137   1.407       .  A
C1137      H1144   1.083       .  S
C1137      C1138   1.411       .  A
C1138      S1140   1.816       .  S
S1139      H1142   1.406       .  S
S1140      H1141   1.395       .  S
C1145      C1146   1.422       .  A
C1145      C1150   1.435       .  A
C1146      H1155   1.079       .  S
C1146      C1147   1.396       .  A
C1147      C1148   1.401       .  A
C1147      S1151   1.805       .  S
C1148      C1149   1.398       .  A
C1149      H1156   1.083       .  S
C1149      C1150   1.411       .  A
C1150      S1152   1.808       .  S
S1151      H1154   1.406       .  S
S1152      H1153   1.407       .  S
C1157      C1158   1.417       .  A
C1157      C1162   1.440       .  A
C1158      H1167   1.072       .  S
C1158      C1159   1.394       .  A
C1159      C1160   1.401       .  A
C1159      S1163   1.806       .  S
C1160      C1161   1.394       .  A
C1161      H1168   1.083       .  S
C1161      C1162   1.409       .  A
C1162      S1164   1.809       .  S
S1163      H1166   1.405       .  S
S1164      H1165   1.406       .  S
C1169      C1170   1.421       .  A
C1169      C1174   1.432       .  A
C1170      H1179   1.074       .  S
C1170      C1171   1.391       .  A
C1171      C1172   1.411       .  A
C1171      S1175   1.805       .  S
C1172      C1173   1.409       .  A
C1173      H1180   1.082       .  S
C1173      C1174   1.424       .  A
C1174      S1176   1.805       .  S
S1175      H1178   1.408       .  S
S1176      H1177   1.406       .  S
C1181      C1182   1.432       .  A
C1181      C1186   1.435       .  A
C1182      H1191   1.077       .  S
C1182      C1183   1.402       .  A
C1183      C1184   1.399       .  A
C1183      S1187   1.805       .  S
C1184      C1185   1.396       .  A
C1185      H1192   1.083       .  S
C1185      C1186   1.412       .  A
C1186      S1188   1.793       .  S
S1187      H1190   1.406       .  S
S1188      H1189   1.406       .  S
C1193      C1194   1.424       .  A
C1193      C1198   1.446       .  A
C1194      H1203   1.077       .  S
C1194      C1195   1.397       .  A
C1195      C1196   1.407       .  A
C1195      S1199   1.805       .  S
C1196      C1197   1.400       .  A
C1197      H1204   1.084       .  S
C1197      C1198   1.412       .  A
C1198      S1200   1.820       .  S
S1199      H1202   1.407       .  S
S1200      H1201   1.394       .  S
C1205      N1223   1.350       .  A
C1205      C1242   1.468       .  S
C1205      C1497   1.492       .  S
N1206      N1223   1.325       .  A
N1206      N1228   1.321       .  A
N1206     Co1845   2.085       .  S
C1207      N1232   1.338       .  A
C1207      C1245   1.467       .  S
C1207      H1252   1.080       .  S
H1208      C1249   1.081       .  S
C1209      N1233   1.347       .  A
C1209      C1213   1.468       .  S
C1209      H1238   1.081       .  S
Co1210     N1529   2.109       .  S
Co1210     N1218   2.078       .  S
Co1210     N2153   2.078       .  S
Co1210     N1828   2.100       .  S
N1211      C1249   1.340       .  A
N1211      N1218   1.322       .  A
Co1212     N1215   2.087       .  S
Co1212     N1821   2.090       .  S
Co1212    Cl2157   2.432       .  S
C1213      N1251   1.349       .  A
C1213      C1485   1.485       .  S
N1214      N1221   1.322       .  A
N1214      N1244   1.324       .  A
N1214     Co1849   2.074   1_554  S
N1215      N1233   1.321       .  A
N1215      N1251   1.326       .  A
N1216      C1245   1.357       .  A
N1216      N1226   1.332       .  A
H1217      C1242   1.081       .  S
N1218      N1239   1.324       .  A
N1219      N1237   1.316       .  A
N1219      N1224   1.321       .  A
N1219     Co1814   2.091       .  S
C1220      N1224   1.357       .  A
C1220      C1248   1.464       .  S
C1220      C1413   1.494       .  S
N1221      C1236   1.344       .  A
C1222      N1250   1.344       .  A
C1222      C1225   1.465       .  S
C1222      H1256   1.081       .  S
C1225      N1246   1.352       .  A
C1225      C1437   1.491       .  S
N1226      N1232   1.318       .  A
N1226     Co1812   2.105       .  S
N1227      C1253   1.340       .  A
N1227      N1229   1.320       .  A
N1228      C1242   1.348       .  A
N1228     Co1511   2.110       .  S
N1229      N1257   1.326       .  A
N1229     Co1247   2.086   1_544  S
H1230      C1253   1.081       .  S
H1231      C1248   1.076       .  S
N1233     Co2150   2.106       .  S
N1234      N1246   1.322       .  A
N1234      N1250   1.319       .  A
N1234     Co1243   2.095       .  S
C1235      N1239   1.348       .  A
C1235      C1249   1.457       .  S
C1235      C1461   1.467       .  S
C1236      C1255   1.462       .  S
C1236      H1240   1.081       .  S
N1237      C1248   1.337       .  A
N1237     Co1548   2.064   1_545  S
C1241      N1257   1.349       .  A
C1241      C1253   1.457       .  S
C1241      C1449   1.471       .  S
Co1243     N1808   2.084   1_545  S
N1244      C1255   1.346       .  A
C1245      C1473   1.503       .  S
Co1247     N1816   2.070   1_556  S
Co1247     N2136   2.097       .  S
Co1247     N1538   2.063   1_565  S
Co1247    Cl1254   2.462   1_566  S
N1250     Co2113   2.082       .  S
Cl1254    Co2115   2.435   1_554  S
C1255      C1422   1.473       .  S
C1258      C1374   1.619       .  S
C1258      C1389   1.609       .  S
C1258      C1398   1.624       .  S
C1258      C1410   1.581       .  S
C1259      C1350   1.567       .  S
C1259      C1362   1.602       .  S
C1259      C1401   1.607       .  S
C1259      C1482   1.591       .  S
C1260      C1329   1.575       .  S
C1260      C1338   1.612       .  S
C1260      C1353   1.621       .  S
C1260      C1425   1.572       .  S
C1261      C1314   1.596       .  S
C1261      C1326   1.619       .  S
C1261      C1377   1.620       .  S
C1261      C1446   1.567       .  S
C1262      C1290   1.603       .  S
C1262      C1302   1.613       .  S
C1262      C1386   1.618       .  S
C1262      C1470   1.584       .  S
C1263      C1278   1.612       .  S
C1263      C1293   1.589       .  S
C1263      C1317   1.626       .  S
C1263      C1434   1.564       .  S
C1264      C1266   1.595       .  S
C1264      C1281   1.609       .  S
C1264      C1341   1.612       .  S
C1264      C1494   1.581       .  S
C1265      C1269   1.637       .  S
C1265      C1305   1.606       .  S
C1265      C1365   1.604       .  S
C1265      C1458   1.567       .  S
C1266      C1267   1.424       .  A
C1266      C1271   1.418       .  A
C1267      H1276   1.083       .  S
C1267      C1268   1.423       .  A
C1268      C1269   1.427       .  A
C1268      S1272   1.796       .  S
C1269      C1270   1.432       .  A
C1270      H1277   1.079       .  S
C1270      C1271   1.417       .  A
C1271      S1273   1.801       .  S
S1272      H1275   1.406       .  S
S1273      H1274   1.407       .  S
C1278      C1279   1.400       .  A
C1278      C1283   1.447       .  A
C1279      H1288   1.057       .  S
C1279      C1280   1.382       .  A
C1280      C1281   1.427       .  A
C1280      S1284   1.816       .  S
C1281      C1282   1.418       .  A
C1282      H1289   1.077       .  S
C1282      C1283   1.428       .  A
C1283      S1285   1.805       .  S
S1284      H1287   1.384       .  S
S1285      H1286   1.408       .  S
C1290      C1291   1.430       .  A
C1290      C1295   1.448       .  A
C1291      H1300   1.083       .  S
C1291      C1292   1.406       .  A
C1292      C1293   1.408       .  A
C1292      S1296   1.797       .  S
C1293      C1294   1.398       .  A
C1294      H1301   1.083       .  S
C1294      C1295   1.400       .  A
C1295      S1297   1.796       .  S
S1296      H1299   1.400       .  S
S1297      H1298   1.409       .  S
C1302      C1303   1.418       .  A
C1302      C1307   1.438       .  A
C1303      H1312   1.066       .  S
C1303      C1304   1.392       .  A
C1304      C1305   1.417       .  A
C1304      S1308   1.799       .  S
C1305      C1306   1.419       .  A
C1306      H1313   1.074       .  S
C1306      C1307   1.430       .  A
C1307      S1309   1.812       .  S
S1308      H1311   1.404       .  S
S1309      H1310   1.398       .  S
C1314      C1315   1.416       .  A
C1314      C1319   1.404       .  A
C1315      H1324   1.081       .  S
C1315      C1316   1.427       .  A
C1316      C1317   1.453       .  A
C1316      S1320   1.802       .  S
C1317      C1318   1.423       .  A
C1318      H1325   1.066       .  S
C1318      C1319   1.390       .  A
C1319      S1321   1.806       .  S
S1320      H1323   1.399       .  S
S1321      H1322   1.399       .  S
C1326      C1327   1.406       .  A
C1326      C1331   1.452       .  A
C1327      H1336   1.050       .  S
C1327      C1328   1.374       .  A
C1328      C1329   1.398       .  A
C1328      S1332   1.807       .  S
C1329      C1330   1.423       .  A
C1330      H1337   1.082       .  S
C1330      C1331   1.440       .  A
C1331      S1333   1.801       .  S
S1332      H1335   1.402       .  S
S1333      H1334   1.406       .  S
C1338      C1339   1.429       .  A
C1338      C1343   1.402       .  A
C1339      H1348   1.079       .  S
C1339      C1340   1.445       .  A
C1340      C1341   1.458       .  A
C1340      S1344   1.807       .  S
C1341      C1342   1.385       .  A
C1342      H1349   1.048       .  S
C1342      C1343   1.377       .  A
C1343      S1345   1.795       .  S
S1344      H1347   1.395       .  S
S1345      H1346   1.398       .  S
C1350      C1351   1.418       .  A
C1350      C1355   1.425       .  A
C1351      H1360   1.080       .  S
C1351      C1352   1.439       .  A
C1352      C1353   1.450       .  A
C1352      S1356   1.808       .  S
C1353      C1354   1.401       .  A
C1354      H1361   1.060       .  S
C1354      C1355   1.363       .  A
C1355      S1357   1.814       .  S
S1356      H1359   1.406       .  S
S1357      H1358   1.358       .  S
C1362      C1363   1.425       .  A
C1362      C1367   1.433       .  A
C1363      H1372   1.082       .  S
C1363      C1364   1.447       .  A
C1364      C1365   1.444       .  A
C1364      S1368   1.804       .  S
C1365      C1366   1.395       .  A
C1366      H1373   1.072       .  S
C1366      C1367   1.376       .  A
C1367      S1369   1.824       .  S
S1368      H1371   1.407       .  S
S1369      H1370   1.376       .  S
C1374      C1375   1.430       .  A
C1374      C1379   1.439       .  A
C1375      H1384   1.065       .  S
C1375      C1376   1.420       .  A
C1376      C1377   1.411       .  A
C1376      S1380   1.804       .  S
C1377      C1378   1.403       .  A
C1378      H1385   1.073       .  S
C1378      C1379   1.423       .  A
C1379      S1381   1.798       .  S
S1380      H1383   1.407       .  S
S1381      H1382   1.402       .  S
C1386      C1387   1.413       .  A
C1386      C1391   1.437       .  A
C1387      H1396   1.076       .  S
C1387      C1388   1.401       .  A
C1388      C1389   1.424       .  A
C1388      S1392   1.791       .  S
C1389      C1390   1.425       .  A
C1390      H1397   1.074       .  S
C1390      C1391   1.432       .  A
C1391      S1393   1.807       .  S
S1392      H1395   1.391       .  S
S1393      H1394   1.406       .  S
C1398      C1399   1.409       .  A
C1398      C1403   1.454       .  A
C1399      H1408   1.067       .  S
C1399      C1400   1.420       .  A
C1400      C1401   1.435       .  A
C1400      S1404   1.808       .  S
C1401      C1402   1.401       .  A
C1402      H1409   1.072       .  S
C1402      C1403   1.427       .  A
C1403      S1405   1.795       .  S
S1404      H1407   1.407       .  S
S1405      H1406   1.387       .  S
C1410      C1411   1.415       .  A
C1410      C1415   1.442       .  A
C1411      H1420   1.062       .  S
C1411      C1412   1.407       .  A
C1412      C1413   1.413       .  A
C1412      S1416   1.807       .  S
C1413      C1414   1.392       .  A
C1414      H1421   1.083       .  S
C1414      C1415   1.394       .  A
C1415      S1417   1.802       .  S
S1416      H1419   1.406       .  S
S1417      H1418   1.408       .  S
C1422      C1423   1.389       .  A
C1422      C1427   1.405       .  A
C1423      H1432   1.084       .  S
C1423      C1424   1.404       .  A
C1424      C1425   1.448       .  A
C1424      S1428   1.814       .  S
C1425      C1426   1.419       .  A
C1426      H1433   1.084       .  S
C1426      C1427   1.402       .  A
C1427      S1429   1.805       .  S
S1428      H1431   1.408       .  S
S1429      H1430   1.404       .  S
C1434      C1435   1.422       .  A
C1434      C1439   1.433       .  A
C1435      H1444   1.075       .  S
C1435      C1436   1.393       .  A
C1436      C1437   1.408       .  A
C1436      S1440   1.813       .  S
C1437      C1438   1.407       .  A
C1438      H1445   1.083       .  S
C1438      C1439   1.411       .  A
C1439      S1441   1.816       .  S
S1440      H1443   1.407       .  S
S1441      H1442   1.395       .  S
C1446      C1447   1.422       .  A
C1446      C1451   1.436       .  A
C1447      H1456   1.079       .  S
C1447      C1448   1.394       .  A
C1448      C1449   1.399       .  A
C1448      S1452   1.805       .  S
C1449      C1450   1.396       .  A
C1450      H1457   1.083       .  S
C1450      C1451   1.409       .  A
C1451      S1453   1.810       .  S
S1452      H1455   1.407       .  S
S1453      H1454   1.406       .  S
C1458      C1459   1.417       .  A
C1458      C1463   1.439       .  A
C1459      H1468   1.072       .  S
C1459      C1460   1.394       .  A
C1460      C1461   1.401       .  A
C1460      S1464   1.807       .  S
C1461      C1462   1.393       .  A
C1462      H1469   1.083       .  S
C1462      C1463   1.407       .  A
C1463      S1465   1.809       .  S
S1464      H1467   1.405       .  S
S1465      H1466   1.406       .  S
C1470      C1471   1.422       .  A
C1470      C1475   1.433       .  A
C1471      H1480   1.073       .  S
C1471      C1472   1.392       .  A
C1472      C1473   1.410       .  A
C1472      S1476   1.806       .  S
C1473      C1474   1.408       .  A
C1474      H1481   1.082       .  S
C1474      C1475   1.423       .  A
C1475      S1477   1.804       .  S
S1476      H1479   1.408       .  S
S1477      H1478   1.407       .  S
C1482      C1483   1.431       .  A
C1482      C1487   1.435       .  A
C1483      H1492   1.077       .  S
C1483      C1484   1.403       .  A
C1484      C1485   1.401       .  A
C1484      S1488   1.806       .  S
C1485      C1486   1.395       .  A
C1486      H1493   1.083       .  S
C1486      C1487   1.412       .  A
C1487      S1489   1.794       .  S
S1488      H1491   1.405       .  S
S1489      H1490   1.406       .  S
C1494      C1495   1.423       .  A
C1494      C1499   1.446       .  A
C1495      H1504   1.077       .  S
C1495      C1496   1.398       .  A
C1496      C1497   1.407       .  A
C1496      S1500   1.805       .  S
C1497      C1498   1.399       .  A
C1498      H1505   1.084       .  S
C1498      C1499   1.412       .  A
C1499      S1501   1.820       .  S
S1500      H1503   1.408       .  S
S1501      H1502   1.394       .  S
C1506      N1524   1.349       .  A
C1506      C1543   1.469       .  S
C1506      C1798   1.493       .  S
N1507      N1524   1.323       .  A
N1507      N1529   1.321       .  A
N1507     Co2146   2.085       .  S
C1508      N1533   1.337       .  A
C1508      C1546   1.466       .  S
C1508      H1553   1.080       .  S
H1509      C1550   1.081       .  S
C1510      N1534   1.347       .  A
C1510      C1514   1.468       .  S
C1510      H1539   1.081       .  S
Co1511     N1519   2.084   1_554  S
Co1511     N1852   2.082       .  S
Co1511     N2129   2.107   1_554  S
N1512      C1550   1.340       .  A
N1512      N1519   1.322       .  A
Co1513     N1516   2.089       .  S
Co1513     N2122   2.087       .  S
Co1513    Cl1856   2.433   1_556  S
C1514      N1552   1.349       .  A
C1514      C1786   1.486       .  S
N1515      N1522   1.322       .  A
N1515      N1545   1.323       .  A
N1515     Co2150   2.074       .  S
N1516      N1534   1.321       .  A
N1516      N1552   1.326       .  A
N1517      C1546   1.356       .  A
N1517      N1527   1.331       .  A
H1518      C1543   1.082       .  S
N1519      N1540   1.326       .  A
N1520      N1538   1.315       .  A
N1520      N1525   1.321       .  A
N1520     Co2115   2.093       .  S
C1521      N1525   1.358       .  A
C1521      C1549   1.464       .  S
C1521      C1714   1.494       .  S
N1522      C1537   1.345       .  A
C1523      N1551   1.344       .  A
C1523      C1526   1.465       .  S
C1523      H1557   1.081       .  S
C1526      N1547   1.351       .  A
C1526      C1738   1.490       .  S
N1527      N1533   1.318       .  A
N1527     Co2113   2.100   1_556  S
N1528      C1554   1.340       .  A
N1528      N1530   1.320       .  A
N1529      C1543   1.350       .  A
N1530      N1558   1.327       .  A
N1530     Co1548   2.093   1_545  S
H1531      C1554   1.081       .  S
H1532      C1549   1.076       .  S
N1534     Co1849   2.107       .  S
N1535      N1547   1.321       .  A
N1535      N1551   1.319       .  A
N1535     Co1544   2.096       .  S
C1536      N1540   1.350       .  A
C1536      C1550   1.458       .  S
C1536      C1762   1.472       .  S
C1537      C1556   1.462       .  S
C1537      H1541   1.082       .  S
N1538      C1549   1.337       .  A
C1542      N1558   1.350       .  A
C1542      C1554   1.456       .  S
C1542      C1750   1.474       .  S
Co1544     N2109   2.080   1_545  S
N1545      C1556   1.346       .  A
C1546      C1774   1.499       .  S
Co1548     N2117   2.072       .  S
Co1548     N1835   2.103       .  S
Co1548    Cl1555   2.464   1_565  S
N1551     Co1812   2.080       .  S
Cl1555    Co1814   2.433       .  S
C1556      C1723   1.473       .  S
C1559      C1675   1.617       .  S
C1559      C1690   1.609       .  S
C1559      C1699   1.622       .  S
C1559      C1711   1.581       .  S
C1560      C1651   1.568       .  S
C1560      C1663   1.602       .  S
C1560      C1702   1.605       .  S
C1560      C1783   1.591       .  S
C1561      C1630   1.574       .  S
C1561      C1639   1.613       .  S
C1561      C1654   1.622       .  S
C1561      C1726   1.574       .  S
C1562      C1615   1.597       .  S
C1562      C1627   1.618       .  S
C1562      C1678   1.620       .  S
C1562      C1747   1.568       .  S
C1563      C1591   1.603       .  S
C1563      C1603   1.617       .  S
C1563      C1687   1.616       .  S
C1563      C1771   1.581       .  S
C1564      C1579   1.609       .  S
C1564      C1594   1.590       .  S
C1564      C1618   1.626       .  S
C1564      C1735   1.563       .  S
C1565      C1567   1.595       .  S
C1565      C1582   1.610       .  S
C1565      C1642   1.610       .  S
C1565      C1795   1.581       .  S
C1566      C1570   1.638       .  S
C1566      C1606   1.607       .  S
C1566      C1666   1.604       .  S
C1566      C1759   1.571       .  S
C1567      C1568   1.424       .  A
C1567      C1572   1.419       .  A
C1568      H1577   1.083       .  S
C1568      C1569   1.423       .  A
C1569      C1570   1.427       .  A
C1569      S1573   1.796       .  S
C1570      C1571   1.432       .  A
C1571      H1578   1.079       .  S
C1571      C1572   1.417       .  A
C1572      S1574   1.802       .  S
S1573      H1576   1.406       .  S
S1574      H1575   1.406       .  S
C1579      C1580   1.399       .  A
C1579      C1584   1.447       .  A
C1580      H1589   1.053       .  S
C1580      C1581   1.382       .  A
C1581      C1582   1.428       .  A
C1581      S1585   1.815       .  S
C1582      C1583   1.418       .  A
C1583      H1590   1.077       .  S
C1583      C1584   1.429       .  A
C1584      S1586   1.808       .  S
S1585      H1588   1.388       .  S
S1586      H1587   1.407       .  S
C1591      C1592   1.431       .  A
C1591      C1596   1.445       .  A
C1592      H1601   1.083       .  S
C1592      C1593   1.406       .  A
C1593      C1594   1.408       .  A
C1593      S1597   1.798       .  S
C1594      C1595   1.401       .  A
C1595      H1602   1.082       .  S
C1595      C1596   1.402       .  A
C1596      S1598   1.795       .  S
S1597      H1600   1.400       .  S
S1598      H1599   1.408       .  S
C1603      C1604   1.419       .  A
C1603      C1608   1.438       .  A
C1604      H1613   1.066       .  S
C1604      C1605   1.394       .  A
C1605      C1606   1.418       .  A
C1605      S1609   1.799       .  S
C1606      C1607   1.419       .  A
C1607      H1614   1.074       .  S
C1607      C1608   1.430       .  A
C1608      S1610   1.812       .  S
S1609      H1612   1.405       .  S
S1610      H1611   1.397       .  S
C1615      C1616   1.416       .  A
C1615      C1620   1.405       .  A
C1616      H1625   1.081       .  S
C1616      C1617   1.427       .  A
C1617      C1618   1.453       .  A
C1617      S1621   1.802       .  S
C1618      C1619   1.424       .  A
C1619      H1626   1.064       .  S
C1619      C1620   1.392       .  A
C1620      S1622   1.806       .  S
S1621      H1624   1.400       .  S
S1622      H1623   1.400       .  S
C1627      C1628   1.406       .  A
C1627      C1632   1.452       .  A
C1628      H1637   1.050       .  S
C1628      C1629   1.374       .  A
C1629      C1630   1.398       .  A
C1629      S1633   1.807       .  S
C1630      C1631   1.423       .  A
C1631      H1638   1.082       .  S
C1631      C1632   1.441       .  A
C1632      S1634   1.801       .  S
S1633      H1636   1.402       .  S
S1634      H1635   1.406       .  S
C1639      C1640   1.429       .  A
C1639      C1644   1.403       .  A
C1640      H1649   1.079       .  S
C1640      C1641   1.445       .  A
C1641      C1642   1.459       .  A
C1641      S1645   1.808       .  S
C1642      C1643   1.384       .  A
C1643      H1650   1.047       .  S
C1643      C1644   1.376       .  A
C1644      S1646   1.795       .  S
S1645      H1648   1.394       .  S
S1646      H1647   1.399       .  S
C1651      C1652   1.417       .  A
C1651      C1656   1.425       .  A
C1652      H1661   1.080       .  S
C1652      C1653   1.439       .  A
C1653      C1654   1.451       .  A
C1653      S1657   1.807       .  S
C1654      C1655   1.402       .  A
C1655      H1662   1.061       .  S
C1655      C1656   1.363       .  A
C1656      S1658   1.814       .  S
S1657      H1660   1.406       .  S
S1658      H1659   1.358       .  S
C1663      C1664   1.426       .  A
C1663      C1668   1.432       .  A
C1664      H1673   1.082       .  S
C1664      C1665   1.447       .  A
C1665      C1666   1.444       .  A
C1665      S1669   1.804       .  S
C1666      C1667   1.395       .  A
C1667      H1674   1.072       .  S
C1667      C1668   1.375       .  A
C1668      S1670   1.823       .  S
S1669      H1672   1.407       .  S
S1670      H1671   1.377       .  S
C1675      C1676   1.429       .  A
C1675      C1680   1.439       .  A
C1676      H1685   1.065       .  S
C1676      C1677   1.418       .  A
C1677      C1678   1.411       .  A
C1677      S1681   1.804       .  S
C1678      C1679   1.403       .  A
C1679      H1686   1.073       .  S
C1679      C1680   1.424       .  A
C1680      S1682   1.799       .  S
S1681      H1684   1.407       .  S
S1682      H1683   1.401       .  S
C1687      C1688   1.413       .  A
C1687      C1692   1.436       .  A
C1688      H1697   1.078       .  S
C1688      C1689   1.401       .  A
C1689      C1690   1.424       .  A
C1689      S1693   1.790       .  S
C1690      C1691   1.425       .  A
C1691      H1698   1.075       .  S
C1691      C1692   1.432       .  A
C1692      S1694   1.806       .  S
S1693      H1696   1.391       .  S
S1694      H1695   1.407       .  S
C1699      C1700   1.408       .  A
C1699      C1704   1.453       .  A
C1700      H1709   1.068       .  S
C1700      C1701   1.419       .  A
C1701      C1702   1.436       .  A
C1701      S1705   1.808       .  S
C1702      C1703   1.402       .  A
C1703      H1710   1.072       .  S
C1703      C1704   1.426       .  A
C1704      S1706   1.795       .  S
S1705      H1708   1.407       .  S
S1706      H1707   1.386       .  S
C1711      C1712   1.415       .  A
C1711      C1716   1.444       .  A
C1712      H1721   1.063       .  S
C1712      C1713   1.406       .  A
C1713      C1714   1.412       .  A
C1713      S1717   1.805       .  S
C1714      C1715   1.392       .  A
C1715      H1722   1.082       .  S
C1715      C1716   1.395       .  A
C1716      S1718   1.805       .  S
S1717      H1720   1.408       .  S
S1718      H1719   1.408       .  S
C1723      C1724   1.389       .  A
C1723      C1728   1.406       .  A
C1724      H1733   1.083       .  S
C1724      C1725   1.405       .  A
C1725      C1726   1.450       .  A
C1725      S1729   1.818       .  S
C1726      C1727   1.419       .  A
C1727      H1734   1.083       .  S
C1727      C1728   1.402       .  A
C1728      S1730   1.807       .  S
S1729      H1732   1.406       .  S
S1730      H1731   1.403       .  S
C1735      C1736   1.421       .  A
C1735      C1740   1.433       .  A
C1736      H1745   1.074       .  S
C1736      C1737   1.392       .  A
C1737      C1738   1.408       .  A
C1737      S1741   1.814       .  S
C1738      C1739   1.407       .  A
C1739      H1746   1.083       .  S
C1739      C1740   1.410       .  A
C1740      S1742   1.817       .  S
S1741      H1744   1.406       .  S
S1742      H1743   1.395       .  S
C1747      C1748   1.422       .  A
C1747      C1752   1.435       .  A
C1748      H1757   1.079       .  S
C1748      C1749   1.395       .  A
C1749      C1750   1.401       .  A
C1749      S1753   1.806       .  S
C1750      C1751   1.397       .  A
C1751      H1758   1.083       .  S
C1751      C1752   1.410       .  A
C1752      S1754   1.809       .  S
S1753      H1756   1.406       .  S
S1754      H1755   1.406       .  S
C1759      C1760   1.417       .  A
C1759      C1764   1.439       .  A
C1760      H1769   1.071       .  S
C1760      C1761   1.395       .  A
C1761      C1762   1.402       .  A
C1761      S1765   1.806       .  S
C1762      C1763   1.394       .  A
C1763      H1770   1.084       .  S
C1763      C1764   1.408       .  A
C1764      S1766   1.804       .  S
S1765      H1768   1.405       .  S
S1766      H1767   1.408       .  S
C1771      C1772   1.422       .  A
C1771      C1776   1.433       .  A
C1772      H1781   1.073       .  S
C1772      C1773   1.391       .  A
C1773      C1774   1.409       .  A
C1773      S1777   1.806       .  S
C1774      C1775   1.407       .  A
C1775      H1782   1.082       .  S
C1775      C1776   1.421       .  A
C1776      S1778   1.804       .  S
S1777      H1780   1.408       .  S
S1778      H1779   1.407       .  S
C1783      C1784   1.431       .  A
C1783      C1788   1.435       .  A
C1784      H1793   1.077       .  S
C1784      C1785   1.404       .  A
C1785      C1786   1.401       .  A
C1785      S1789   1.805       .  S
C1786      C1787   1.395       .  A
C1787      H1794   1.083       .  S
C1787      C1788   1.411       .  A
C1788      S1790   1.792       .  S
S1789      H1792   1.406       .  S
S1790      H1791   1.407       .  S
C1795      C1796   1.422       .  A
C1795      C1800   1.447       .  A
C1796      H1805   1.075       .  S
C1796      C1797   1.400       .  A
C1797      C1798   1.407       .  A
C1797      S1801   1.811       .  S
C1798      C1799   1.400       .  A
C1799      H1806   1.084       .  S
C1799      C1800   1.412       .  A
C1800      S1802   1.821       .  S
S1801      H1804   1.407       .  S
S1802      H1803   1.394       .  S
C1807      N1825   1.349       .  A
C1807      C1844   1.468       .  S
C1807      C2099   1.491       .  S
N1808      N1825   1.324       .  A
N1808      N1830   1.321       .  A
C1809      N1834   1.338       .  A
C1809      C1847   1.469       .  S
C1809      H1854   1.080       .  S
H1810      C1851   1.081       .  S
C1811      N1835   1.347       .  A
C1811      C1815   1.467       .  S
C1811      H1840   1.081       .  S
Co1812     N2131   2.110   1_545  S
Co1812     N1820   2.083   1_545  S
N1813      C1851   1.341       .  A
N1813      N1820   1.322       .  A
Co1814     N1817   2.085   1_545  S
C1815      N1853   1.348       .  A
C1815      C2087   1.484       .  S
N1816      N1823   1.323       .  A
N1816      N1846   1.323       .  A
N1817      N1835   1.320       .  A
N1817      N1853   1.326       .  A
N1818      C1847   1.356       .  A
N1818      N1828   1.331       .  A
H1819      C1844   1.082       .  S
N1820      N1841   1.325       .  A
N1821      N1839   1.316       .  A
N1821      N1826   1.321       .  A
C1822      N1826   1.357       .  A
C1822      C1850   1.465       .  S
C1822      C2015   1.494       .  S
N1823      C1838   1.344       .  A
C1824      N1852   1.343       .  A
C1824      C1827   1.465       .  S
C1824      H1858   1.081       .  S
C1827      N1848   1.351       .  A
C1827      C2039   1.490       .  S
N1828      N1834   1.319       .  A
N1829      C1855   1.340       .  A
N1829      N1831   1.320       .  A
N1830      C1844   1.348       .  A
N1830     Co2113   2.108   1_565  S
N1831      N1859   1.327       .  A
N1831     Co1849   2.096   1_554  S
H1832      C1855   1.081       .  S
H1833      C1850   1.077       .  S
N1836      N1848   1.321       .  A
N1836      N1852   1.319       .  A
N1836     Co1845   2.095       .  S
C1837      N1841   1.350       .  A
C1837      C1851   1.459       .  S
C1837      C2063   1.471       .  S
C1838      C1857   1.461       .  S
C1838      H1842   1.081       .  S
N1839      C1850   1.338       .  A
N1839     Co2150   2.064       .  S
C1843      N1859   1.351       .  A
C1843      C1855   1.456       .  S
C1843      C2051   1.474       .  S
N1846      C1857   1.345       .  A
C1847      C2075   1.502       .  S
Co1849     N2140   2.064       .  S
Co1849    Cl1856   2.466   1_556  S
C1857      C2024   1.471       .  S
C1860      C1976   1.619       .  S
C1860      C1991   1.608       .  S
C1860      C2000   1.624       .  S
C1860      C2012   1.582       .  S
C1861      C1952   1.565       .  S
C1861      C1964   1.603       .  S
C1861      C2003   1.608       .  S
C1861      C2084   1.590       .  S
C1862      C1931   1.575       .  S
C1862      C1940   1.613       .  S
C1862      C1955   1.620       .  S
C1862      C2027   1.571       .  S
C1863      C1916   1.599       .  S
C1863      C1928   1.616       .  S
C1863      C1979   1.620       .  S
C1863      C2048   1.568       .  S
C1864      C1892   1.603       .  S
C1864      C1904   1.614       .  S
C1864      C1988   1.617       .  S
C1864      C2072   1.584       .  S
C1865      C1880   1.610       .  S
C1865      C1895   1.589       .  S
C1865      C1919   1.627       .  S
C1865      C2036   1.564       .  S
C1866      C1868   1.594       .  S
C1866      C1883   1.608       .  S
C1866      C1943   1.611       .  S
C1866      C2096   1.580       .  S
C1867      C1871   1.637       .  S
C1867      C1907   1.607       .  S
C1867      C1967   1.604       .  S
C1867      C2060   1.571       .  S
C1868      C1869   1.424       .  A
C1868      C1873   1.418       .  A
C1869      H1878   1.083       .  S
C1869      C1870   1.423       .  A
C1870      C1871   1.427       .  A
C1870      S1874   1.795       .  S
C1871      C1872   1.433       .  A
C1872      H1879   1.079       .  S
C1872      C1873   1.417       .  A
C1873      S1875   1.802       .  S
S1874      H1877   1.406       .  S
S1875      H1876   1.406       .  S
C1880      C1881   1.400       .  A
C1880      C1885   1.446       .  A
C1881      H1890   1.049       .  S
C1881      C1882   1.382       .  A
C1882      C1883   1.427       .  A
C1882      S1886   1.817       .  S
C1883      C1884   1.418       .  A
C1884      H1891   1.077       .  S
C1884      C1885   1.429       .  A
C1885      S1887   1.806       .  S
S1886      H1889   1.385       .  S
S1887      H1888   1.407       .  S
C1892      C1893   1.431       .  A
C1892      C1897   1.447       .  A
C1893      H1902   1.083       .  S
C1893      C1894   1.405       .  A
C1894      C1895   1.407       .  A
C1894      S1898   1.797       .  S
C1895      C1896   1.398       .  A
C1896      H1903   1.083       .  S
C1896      C1897   1.401       .  A
C1897      S1899   1.796       .  S
S1898      H1901   1.400       .  S
S1899      H1900   1.409       .  S
C1904      C1905   1.418       .  A
C1904      C1909   1.438       .  A
C1905      H1914   1.066       .  S
C1905      C1906   1.393       .  A
C1906      C1907   1.418       .  A
C1906      S1910   1.800       .  S
C1907      C1908   1.419       .  A
C1908      H1915   1.075       .  S
C1908      C1909   1.431       .  A
C1909      S1911   1.811       .  S
S1910      H1913   1.405       .  S
S1911      H1912   1.397       .  S
C1916      C1917   1.417       .  A
C1916      C1921   1.405       .  A
C1917      H1926   1.080       .  S
C1917      C1918   1.428       .  A
C1918      C1919   1.452       .  A
C1918      S1922   1.802       .  S
C1919      C1920   1.424       .  A
C1920      H1927   1.063       .  S
C1920      C1921   1.392       .  A
C1921      S1923   1.805       .  S
S1922      H1925   1.400       .  S
S1923      H1924   1.400       .  S
C1928      C1929   1.406       .  A
C1928      C1933   1.451       .  A
C1929      H1938   1.051       .  S
C1929      C1930   1.374       .  A
C1930      C1931   1.399       .  A
C1930      S1934   1.807       .  S
C1931      C1932   1.423       .  A
C1932      H1939   1.082       .  S
C1932      C1933   1.440       .  A
C1933      S1935   1.800       .  S
S1934      H1937   1.402       .  S
S1935      H1936   1.407       .  S
C1940      C1941   1.430       .  A
C1940      C1945   1.401       .  A
C1941      H1950   1.079       .  S
C1941      C1942   1.445       .  A
C1942      C1943   1.459       .  A
C1942      S1946   1.808       .  S
C1943      C1944   1.384       .  A
C1944      H1951   1.049       .  S
C1944      C1945   1.376       .  A
C1945      S1947   1.795       .  S
S1946      H1949   1.395       .  S
S1947      H1948   1.399       .  S
C1952      C1953   1.417       .  A
C1952      C1957   1.425       .  A
C1953      H1962   1.080       .  S
C1953      C1954   1.438       .  A
C1954      C1955   1.450       .  A
C1954      S1958   1.806       .  S
C1955      C1956   1.402       .  A
C1956      H1963   1.061       .  S
C1956      C1957   1.363       .  A
C1957      S1959   1.814       .  S
S1958      H1961   1.407       .  S
S1959      H1960   1.358       .  S
C1964      C1965   1.426       .  A
C1964      C1969   1.433       .  A
C1965      H1974   1.082       .  S
C1965      C1966   1.447       .  A
C1966      C1967   1.443       .  A
C1966      S1970   1.802       .  S
C1967      C1968   1.396       .  A
C1968      H1975   1.071       .  S
C1968      C1969   1.375       .  A
C1969      S1971   1.824       .  S
S1970      H1973   1.407       .  S
S1971      H1972   1.377       .  S
C1976      C1977   1.429       .  A
C1976      C1981   1.439       .  A
C1977      H1986   1.064       .  S
C1977      C1978   1.418       .  A
C1978      C1979   1.412       .  A
C1978      S1982   1.804       .  S
C1979      C1980   1.403       .  A
C1980      H1987   1.073       .  S
C1980      C1981   1.424       .  A
C1981      S1983   1.799       .  S
S1982      H1985   1.407       .  S
S1983      H1984   1.402       .  S
C1988      C1989   1.413       .  A
C1988      C1993   1.436       .  A
C1989      H1998   1.076       .  S
C1989      C1990   1.402       .  A
C1990      C1991   1.424       .  A
C1990      S1994   1.790       .  S
C1991      C1992   1.425       .  A
C1992      H1999   1.075       .  S
C1992      C1993   1.430       .  A
C1993      S1995   1.804       .  S
S1994      H1997   1.392       .  S
S1995      H1996   1.408       .  S
C2000      C2001   1.409       .  A
C2000      C2005   1.452       .  A
C2001      H2010   1.069       .  S
C2001      C2002   1.421       .  A
C2002      C2003   1.437       .  A
C2002      S2006   1.809       .  S
C2003      C2004   1.401       .  A
C2004      H2011   1.072       .  S
C2004      C2005   1.427       .  A
C2005      S2007   1.794       .  S
S2006      H2009   1.407       .  S
S2007      H2008   1.387       .  S
C2012      C2013   1.416       .  A
C2012      C2017   1.442       .  A
C2013      H2022   1.063       .  S
C2013      C2014   1.406       .  A
C2014      C2015   1.412       .  A
C2014      S2018   1.806       .  S
C2015      C2016   1.393       .  A
C2016      H2023   1.082       .  S
C2016      C2017   1.395       .  A
C2017      S2019   1.805       .  S
S2018      H2021   1.407       .  S
S2019      H2020   1.408       .  S
C2024      C2025   1.387       .  A
C2024      C2029   1.404       .  A
C2025      H2034   1.084       .  S
C2025      C2026   1.403       .  A
C2026      C2027   1.449       .  A
C2026      S2030   1.814       .  S
C2027      C2028   1.419       .  A
C2028      H2035   1.084       .  S
C2028      C2029   1.401       .  A
C2029      S2031   1.803       .  S
S2030      H2033   1.407       .  S
S2031      H2032   1.406       .  S
C2036      C2037   1.422       .  A
C2036      C2041   1.433       .  A
C2037      H2046   1.075       .  S
C2037      C2038   1.393       .  A
C2038      C2039   1.408       .  A
C2038      S2042   1.813       .  S
C2039      C2040   1.407       .  A
C2040      H2047   1.083       .  S
C2040      C2041   1.410       .  A
C2041      S2043   1.816       .  S
S2042      H2045   1.407       .  S
S2043      H2044   1.395       .  S
C2048      C2049   1.422       .  A
C2048      C2053   1.435       .  A
C2049      H2058   1.079       .  S
C2049      C2050   1.396       .  A
C2050      C2051   1.401       .  A
C2050      S2054   1.806       .  S
C2051      C2052   1.397       .  A
C2052      H2059   1.083       .  S
C2052      C2053   1.409       .  A
C2053      S2055   1.808       .  S
S2054      H2057   1.406       .  S
S2055      H2056   1.407       .  S
C2060      C2061   1.418       .  A
C2060      C2065   1.440       .  A
C2061      H2070   1.071       .  S
C2061      C2062   1.395       .  A
C2062      C2063   1.401       .  A
C2062      S2066   1.806       .  S
C2063      C2064   1.394       .  A
C2064      H2071   1.083       .  S
C2064      C2065   1.409       .  A
C2065      S2067   1.809       .  S
S2066      H2069   1.405       .  S
S2067      H2068   1.407       .  S
C2072      C2073   1.422       .  A
C2072      C2077   1.433       .  A
C2073      H2082   1.073       .  S
C2073      C2074   1.391       .  A
C2074      C2075   1.409       .  A
C2074      S2078   1.806       .  S
C2075      C2076   1.409       .  A
C2076      H2083   1.082       .  S
C2076      C2077   1.424       .  A
C2077      S2079   1.806       .  S
S2078      H2081   1.408       .  S
S2079      H2080   1.406       .  S
C2084      C2085   1.431       .  A
C2084      C2089   1.436       .  A
C2085      H2094   1.077       .  S
C2085      C2086   1.403       .  A
C2086      C2087   1.400       .  A
C2086      S2090   1.806       .  S
C2087      C2088   1.395       .  A
C2088      H2095   1.083       .  S
C2088      C2089   1.411       .  A
C2089      S2091   1.794       .  S
S2090      H2093   1.405       .  S
S2091      H2092   1.406       .  S
C2096      C2097   1.423       .  A
C2096      C2101   1.446       .  A
C2097      H2106   1.077       .  S
C2097      C2098   1.396       .  A
C2098      C2099   1.407       .  A
C2098      S2102   1.805       .  S
C2099      C2100   1.400       .  A
C2100      H2107   1.084       .  S
C2100      C2101   1.412       .  A
C2101      S2103   1.820       .  S
S2102      H2105   1.407       .  S
S2103      H2104   1.394       .  S
C2108      N2126   1.348       .  A
C2108      C2145   1.470       .  S
C2108      C2400   1.491       .  S
N2109      N2126   1.322       .  A
N2109      N2131   1.321       .  A
C2110      N2135   1.337       .  A
C2110      C2148   1.466       .  S
C2110      H2155   1.080       .  S
H2111      C2152   1.081       .  S
C2112      N2136   1.345       .  A
C2112      C2116   1.465       .  S
C2112      H2141   1.081       .  S
Co2113     N2121   2.084   1_544  S
N2114      C2152   1.340       .  A
N2114      N2121   1.322       .  A
Co2115     N2118   2.087   1_545  S
C2116      N2154   1.349       .  A
C2116      C2388   1.481       .  S
N2117      N2124   1.323       .  A
N2117      N2147   1.323       .  A
N2118      N2136   1.320       .  A
N2118      N2154   1.325       .  A
N2119      C2148   1.358       .  A
N2119      N2129   1.332       .  A
H2120      C2145   1.082       .  S
N2121      N2142   1.326       .  A
N2122      N2140   1.315       .  A
N2122      N2127   1.321       .  A
C2123      N2127   1.357       .  A
C2123      C2151   1.465       .  S
C2123      C2316   1.493       .  S
N2124      C2139   1.344       .  A
C2125      N2153   1.344       .  A
C2125      C2128   1.465       .  S
C2125      H2159   1.081       .  S
C2128      N2149   1.351       .  A
C2128      C2340   1.491       .  S
N2129      N2135   1.318       .  A
N2130      C2156   1.341       .  A
N2130      N2132   1.320       .  A
N2131      C2145   1.350       .  A
N2132      N2160   1.328       .  A
N2132     Co2150   2.097       .  S
H2133      C2156   1.081       .  S
H2134      C2151   1.076       .  S
N2137      N2149   1.321       .  A
N2137      N2153   1.318       .  A
N2137     Co2146   2.097       .  S
C2138      N2142   1.350       .  A
C2138      C2152   1.457       .  S
C2138      C2364   1.471       .  S
C2139      C2158   1.461       .  S
C2139      H2143   1.081       .  S
N2140      C2151   1.337       .  A
C2144      N2160   1.352       .  A
C2144      C2156   1.457       .  S
C2144      C2352   1.477       .  S
N2147      C2158   1.345       .  A
C2148      C2376   1.503       .  S
Co2150    Cl2157   2.466       .  S
C2158      C2325   1.471       .  S
C2161      C2277   1.620       .  S
C2161      C2292   1.610       .  S
C2161      C2301   1.624       .  S
C2161      C2313   1.581       .  S
C2162      C2253   1.567       .  S
C2162      C2265   1.600       .  S
C2162      C2304   1.607       .  S
C2162      C2385   1.588       .  S
C2163      C2232   1.575       .  S
C2163      C2241   1.610       .  S
C2163      C2256   1.621       .  S
C2163      C2328   1.573       .  S
C2164      C2217   1.598       .  S
C2164      C2229   1.620       .  S
C2164      C2280   1.620       .  S
C2164      C2349   1.570       .  S
C2165      C2193   1.601       .  S
C2165      C2205   1.613       .  S
C2165      C2289   1.617       .  S
C2165      C2373   1.583       .  S
C2166      C2181   1.610       .  S
C2166      C2196   1.589       .  S
C2166      C2220   1.627       .  S
C2166      C2337   1.565       .  S
C2167      C2169   1.595       .  S
C2167      C2184   1.608       .  S
C2167      C2244   1.608       .  S
C2167      C2397   1.577       .  S
C2168      C2172   1.638       .  S
C2168      C2208   1.606       .  S
C2168      C2268   1.602       .  S
C2168      C2361   1.571       .  S
C2169      C2170   1.424       .  A
C2169      C2174   1.418       .  A
C2170      H2179   1.083       .  S
C2170      C2171   1.423       .  A
C2171      C2172   1.427       .  A
C2171      S2175   1.795       .  S
C2172      C2173   1.432       .  A
C2173      H2180   1.079       .  S
C2173      C2174   1.416       .  A
C2174      S2176   1.801       .  S
S2175      H2178   1.406       .  S
S2176      H2177   1.407       .  S
C2181      C2182   1.400       .  A
C2181      C2186   1.446       .  A
C2182      H2191   1.052       .  S
C2182      C2183   1.382       .  A
C2183      C2184   1.428       .  A
C2183      S2187   1.817       .  S
C2184      C2185   1.420       .  A
C2185      H2192   1.078       .  S
C2185      C2186   1.425       .  A
C2186      S2188   1.799       .  S
S2187      H2190   1.385       .  S
S2188      H2189   1.405       .  S
C2193      C2194   1.430       .  A
C2193      C2198   1.446       .  A
C2194      H2203   1.083       .  S
C2194      C2195   1.406       .  A
C2195      C2196   1.408       .  A
C2195      S2199   1.797       .  S
C2196      C2197   1.399       .  A
C2197      H2204   1.082       .  S
C2197      C2198   1.400       .  A
C2198      S2200   1.795       .  S
S2199      H2202   1.400       .  S
S2200      H2201   1.409       .  S
C2205      C2206   1.418       .  A
C2205      C2210   1.438       .  A
C2206      H2215   1.067       .  S
C2206      C2207   1.393       .  A
C2207      C2208   1.419       .  A
C2207      S2211   1.800       .  S
C2208      C2209   1.418       .  A
C2209      H2216   1.075       .  S
C2209      C2210   1.429       .  A
C2210      S2212   1.811       .  S
S2211      H2214   1.404       .  S
S2212      H2213   1.397       .  S
C2217      C2218   1.417       .  A
C2217      C2222   1.404       .  A
C2218      H2227   1.081       .  S
C2218      C2219   1.428       .  A
C2219      C2220   1.453       .  A
C2219      S2223   1.802       .  S
C2220      C2221   1.424       .  A
C2221      H2228   1.064       .  S
C2221      C2222   1.391       .  A
C2222      S2224   1.806       .  S
S2223      H2226   1.400       .  S
S2224      H2225   1.399       .  S
C2229      C2230   1.409       .  A
C2229      C2234   1.451       .  A
C2230      H2239   1.050       .  S
C2230      C2231   1.376       .  A
C2231      C2232   1.398       .  A
C2231      S2235   1.807       .  S
C2232      C2233   1.422       .  A
C2233      H2240   1.082       .  S
C2233      C2234   1.439       .  A
C2234      S2236   1.800       .  S
S2235      H2238   1.403       .  S
S2236      H2237   1.407       .  S
C2241      C2242   1.429       .  A
C2241      C2246   1.402       .  A
C2242      H2251   1.079       .  S
C2242      C2243   1.443       .  A
C2243      C2244   1.458       .  A
C2243      S2247   1.809       .  S
C2244      C2245   1.383       .  A
C2245      H2252   1.047       .  S
C2245      C2246   1.375       .  A
C2246      S2248   1.795       .  S
S2247      H2250   1.394       .  S
S2248      H2249   1.399       .  S
C2253      C2254   1.418       .  A
C2253      C2258   1.425       .  A
C2254      H2263   1.080       .  S
C2254      C2255   1.439       .  A
C2255      C2256   1.450       .  A
C2255      S2259   1.806       .  S
C2256      C2257   1.402       .  A
C2257      H2264   1.061       .  S
C2257      C2258   1.363       .  A
C2258      S2260   1.814       .  S
S2259      H2262   1.407       .  S
S2260      H2261   1.359       .  S
C2265      C2266   1.426       .  A
C2265      C2270   1.433       .  A
C2266      H2275   1.082       .  S
C2266      C2267   1.446       .  A
C2267      C2268   1.443       .  A
C2267      S2271   1.804       .  S
C2268      C2269   1.395       .  A
C2269      H2276   1.071       .  S
C2269      C2270   1.374       .  A
C2270      S2272   1.824       .  S
S2271      H2274   1.407       .  S
S2272      H2273   1.377       .  S
C2277      C2278   1.430       .  A
C2277      C2282   1.438       .  A
C2278      H2287   1.064       .  S
C2278      C2279   1.420       .  A
C2279      C2280   1.411       .  A
C2279      S2283   1.804       .  S
C2280      C2281   1.404       .  A
C2281      H2288   1.072       .  S
C2281      C2282   1.423       .  A
C2282      S2284   1.798       .  S
S2283      H2286   1.407       .  S
S2284      H2285   1.402       .  S
C2289      C2290   1.415       .  A
C2289      C2294   1.434       .  A
C2290      H2299   1.077       .  S
C2290      C2291   1.404       .  A
C2291      C2292   1.424       .  A
C2291      S2295   1.792       .  S
C2292      C2293   1.425       .  A
C2293      H2300   1.075       .  S
C2293      C2294   1.429       .  A
C2294      S2296   1.805       .  S
S2295      H2298   1.392       .  S
S2296      H2297   1.407       .  S
C2301      C2302   1.410       .  A
C2301      C2306   1.452       .  A
C2302      H2311   1.064       .  S
C2302      C2303   1.420       .  A
C2303      C2304   1.435       .  A
C2303      S2307   1.810       .  S
C2304      C2305   1.402       .  A
C2305      H2312   1.073       .  S
C2305      C2306   1.426       .  A
C2306      S2308   1.793       .  S
S2307      H2310   1.406       .  S
S2308      H2309   1.389       .  S
C2313      C2314   1.415       .  A
C2313      C2318   1.441       .  A
C2314      H2323   1.062       .  S
C2314      C2315   1.406       .  A
C2315      C2316   1.412       .  A
C2315      S2319   1.807       .  S
C2316      C2317   1.393       .  A
C2317      H2324   1.083       .  S
C2317      C2318   1.395       .  A
C2318      S2320   1.802       .  S
S2319      H2322   1.407       .  S
S2320      H2321   1.408       .  S
C2325      C2326   1.387       .  A
C2325      C2330   1.406       .  A
C2326      H2335   1.085       .  S
C2326      C2327   1.402       .  A
C2327      C2328   1.448       .  A
C2327      S2331   1.811       .  S
C2328      C2329   1.419       .  A
C2329      H2336   1.084       .  S
C2329      C2330   1.403       .  A
C2330      S2332   1.806       .  S
S2331      H2334   1.408       .  S
S2332      H2333   1.404       .  S
C2337      C2338   1.420       .  A
C2337      C2342   1.433       .  A
C2338      H2347   1.075       .  S
C2338      C2339   1.390       .  A
C2339      C2340   1.408       .  A
C2339      S2343   1.812       .  S
C2340      C2341   1.408       .  A
C2341      H2348   1.083       .  S
C2341      C2342   1.412       .  A
C2342      S2344   1.816       .  S
S2343      H2346   1.407       .  S
S2344      H2345   1.395       .  S
C2349      C2350   1.422       .  A
C2349      C2354   1.436       .  A
C2350      H2359   1.079       .  S
C2350      C2351   1.398       .  A
C2351      C2352   1.402       .  A
C2351      S2355   1.806       .  S
C2352      C2353   1.396       .  A
C2353      H2360   1.083       .  S
C2353      C2354   1.410       .  A
C2354      S2356   1.809       .  S
S2355      H2358   1.406       .  S
S2356      H2357   1.406       .  S
C2361      C2362   1.418       .  A
C2361      C2366   1.441       .  A
C2362      H2371   1.070       .  S
C2362      C2363   1.393       .  A
C2363      C2364   1.400       .  A
C2363      S2367   1.806       .  S
C2364      C2365   1.394       .  A
C2365      H2372   1.083       .  S
C2365      C2366   1.410       .  A
C2366      S2368   1.809       .  S
S2367      H2370   1.405       .  S
S2368      H2369   1.406       .  S
C2373      C2374   1.422       .  A
C2373      C2378   1.433       .  A
C2374      H2383   1.074       .  S
C2374      C2375   1.392       .  A
C2375      C2376   1.410       .  A
C2375      S2379   1.805       .  S
C2376      C2377   1.408       .  A
C2377      H2384   1.082       .  S
C2377      C2378   1.422       .  A
C2378      S2380   1.804       .  S
S2379      H2382   1.408       .  S
S2380      H2381   1.406       .  S
C2385      C2386   1.431       .  A
C2385      C2390   1.435       .  A
C2386      H2395   1.077       .  S
C2386      C2387   1.402       .  A
C2387      C2388   1.399       .  A
C2387      S2391   1.805       .  S
C2388      C2389   1.394       .  A
C2389      H2396   1.083       .  S
C2389      C2390   1.410       .  A
C2390      S2392   1.794       .  S
S2391      H2394   1.406       .  S
S2392      H2393   1.406       .  S
C2397      C2398   1.421       .  A
C2397      C2402   1.446       .  A
C2398      H2407   1.075       .  S
C2398      C2399   1.399       .  A
C2399      C2400   1.408       .  A
C2399      S2403   1.811       .  S
C2400      C2401   1.399       .  A
C2401      H2408   1.084       .  S
C2401      C2402   1.411       .  A
C2402      S2404   1.821       .  S
S2403      H2406   1.407       .  S
S2404      H2405   1.394       .  S
