geometry optimzed in LAMMPS
_audit_creation_date              2020-11-30 
_audit_creation_method            'lammps2cif' 
_symmetry_space_group_name_H-M    'P1' 
_symmetry_Int_Tables_number       1 
_symmetry_cell_setting            triclinic 
loop_ 
_symmetry_equiv_pos_as_xyz 
  x,y,z 
_cell_length_a                    25.45434211054036 
_cell_length_b                    25.159936101380183 
_cell_length_c                    25.3595775433241 
_cell_angle_alpha                 90.40718164741185 
_cell_angle_beta                  90.47899937369822 
_cell_angle_gamma                 90.76076282647657 
loop_ 
_atom_site_label 
_atom_site_type_symbol 
_atom_site_fract_x 
_atom_site_fract_y 
_atom_site_fract_z 
_atom_site_charge 
C1          C  0.72054578  0.73271685  0.03329600     0.03610
C2          C  0.73097518  0.67799668  0.02950138    -0.12540
C3          C  0.68980651  0.64038189  0.03138818     0.01110
C4          C  0.63794524  0.65834539  0.03531541    -0.11070
C5          C  0.62711635  0.71270322  0.03932668     0.03600
C6          C  0.66851100  0.74987370  0.03840631    -0.10240
H7          H  0.77112558  0.66482996  0.02554998     0.09200
H8          H  0.60561105  0.62984823  0.03513766     0.06730
H9          H  0.66020211  0.79196421  0.04065947     0.06570
C10         C  0.72818903  0.32178857  0.99874608     0.03610
C11         C  0.73849281  0.37729694  0.00068723    -0.12540
C12         C  0.69680153  0.41352424  0.99878926     0.01110
C13         C  0.64554336  0.39436345  0.99047333    -0.11070
C14         C  0.63490239  0.33991649  0.98717453     0.03600
C15         C  0.67558965  0.30389631  0.99349133    -0.10490
H16         H  0.77832410  0.39248849  0.00433000     0.09200
H17         H  0.61336865  0.42209767  0.98777623     0.06730
H18         H  0.66598544  0.26182912  0.99335576     0.06570
C19         C  0.32232116  0.32075206  0.99389511     0.03610
C20         C  0.37352392  0.30160862  0.98789354    -0.12540
C21         C  0.41447898  0.33666146  0.97613301     0.01110
C22         C  0.40378460  0.39037230  0.96896381    -0.11070
C23         C  0.35531794  0.41231813  0.98367043     0.03600
C24         C  0.31430375  0.37623936  0.99656552    -0.10490
H25         H  0.38118295  0.25945507  0.99086721     0.09200
H26         H  0.43526074  0.41519276  0.95423498     0.06730
H27         H  0.27614752  0.39038572  0.00783186     0.06570
C28         C  0.32030270  0.73491553  0.00224503     0.03610
C29         C  0.31403667  0.67947238  0.99449807    -0.12540
C30         C  0.35304053  0.64425268  0.01210614     0.01110
C31         C  0.39581982  0.66580663  0.04079209    -0.11070
C32         C  0.40653938  0.72037501  0.04124070     0.03600
C33         C  0.36804817  0.75509123  0.02315762    -0.10490
H34         H  0.27915914  0.66448957  0.97442895     0.09200
H35         H  0.42419596  0.63976251  0.05870257     0.06730
H36         H  0.37510442  0.79756086  0.02613875     0.06570
C37         C  0.72319593  0.02751109  0.70292837     0.03610
C38         C  0.66987402  0.02740187  0.71790759    -0.12540
C39         C  0.62986802  0.02508100  0.67991726     0.01110
C40         C  0.64252609  0.02491639  0.62654613    -0.11070
C41         C  0.69497565  0.02616510  0.61035876     0.03600
C42         C  0.73517134  0.02559321  0.64860844    -0.10490
H43         H  0.65892433  0.02966348  0.75900463     0.09200
H44         H  0.61114847  0.02385597  0.59733031     0.06730
H45         H  0.77549702  0.02395770  0.63571947     0.06570
C46         C  0.31510020  0.01893783  0.69891852     0.03610
C47         C  0.36785134  0.00853035  0.71304282    -0.12540
C48         C  0.40805930  0.01352956  0.67618893     0.01110
C49         C  0.39594185  0.02535537  0.62399879    -0.11070
C50         C  0.34418618  0.03487443  0.60819367     0.03600
C51         C  0.30400287  0.03330286  0.64604885    -0.10490
H52         H  0.37841264  0.99727073  0.75279571     0.09200
H53         H  0.42746222  0.02785966  0.59555481     0.06730
H54         H  0.26467199  0.04408542  0.63419281     0.06570
C55         C  0.32087822  0.02096763  0.29389558     0.03610
C56         C  0.30962260  0.03740993  0.34580470    -0.12540
C57         C  0.34959064  0.04096757  0.38420206     0.01110
C58         C  0.40148791  0.03014042  0.36981469    -0.11070
C59         C  0.41361155  0.01583630  0.31801748     0.03600
C60         C  0.37327457  0.00975472  0.28057400    -0.10490
H61         H  0.26987132  0.04754241  0.35649877     0.09200
H62         H  0.43275835  0.03272110  0.39904948     0.06730
H63         H  0.38304790  0.99756720  0.24082671     0.06570
C64         C  0.72836543  0.01369186  0.29429261     0.03610
C65         C  0.73973171  0.02475626  0.34790458    -0.12540
C66         C  0.69962510  0.02380139  0.38549937     0.01110
C67         C  0.64791965  0.01268632  0.36947682    -0.11070
C68         C  0.63548529  0.00398681  0.31645080     0.03600
C69         C  0.67557948  0.00392389  0.27893781    -0.10490
H70         H  0.77937573  0.03504331  0.36040519     0.09200
H71         H  0.61670493  0.01255791  0.39835011     0.06730
H72         H  0.66541101  0.99667916  0.23793356     0.06570
C73         C  0.03065636  0.32462819  0.70838918     0.03610
C74         C  0.03895391  0.37728587  0.72581084    -0.12540
C75         C  0.05234800  0.41639952  0.68954961     0.01110
C76         C  0.05975539  0.40213088  0.63704131    -0.11070
C77         C  0.04030990  0.35339776  0.61675306     0.03600
C78         C  0.02619453  0.31388050  0.65366414    -0.10490
H79         H  0.03556158  0.38749106  0.76722339     0.09200
H80         H  0.07567623  0.43229745  0.61126493     0.06730
H81         H  0.01225362  0.27515501  0.64078044     0.06570
C82         C  0.06306972  0.73493678  0.69637455     0.03610
C83         C  0.06111346  0.68142167  0.71193351    -0.12540
C84         C  0.05391783  0.64091351  0.67451302     0.01110
C85         C  0.05088298  0.65400243  0.62095491    -0.11070
C86         C  0.05306064  0.70711731  0.60477283     0.03600
C87         C  0.05956799  0.74773617  0.64255362    -0.10490
H88         H  0.06192829  0.67161535  0.75349638     0.09200
H89         H  0.04540797  0.62273232  0.59168842     0.06730
H90         H  0.05887552  0.78895573  0.63049715     0.06570
C91         C  0.01511626  0.31689195  0.29716773     0.03610
C92         C  0.01846781  0.30998375  0.35221559    -0.12540
C93         C  0.00705429  0.35273664  0.38668645     0.01110
C94         C  0.98784401  0.39955592  0.36358516    -0.11070
C95         C  0.99489097  0.40944863  0.31003685     0.03600
C96         C  0.00810531  0.36779419  0.27650443    -0.10490
H97         H  0.02962188  0.27158664  0.36707310     0.09200
H98         H  0.97204925  0.43114622  0.38746199     0.06730
H99         H  0.01152269  0.37458706  0.23450076     0.06570
C100        C  0.03086648  0.72523993  0.28832251     0.03610
C101        C  0.03640460  0.73885021  0.34209545    -0.12540
C102        C  0.03505693  0.69906118  0.38058115     0.01110
C103        C  0.02830069  0.64583428  0.36513887    -0.11070
C104        C  0.02269339  0.63209843  0.31184753     0.03600
C105        C  0.02348920  0.67172854  0.27356950    -0.10490
H106        H  0.04091175  0.78013080  0.35396023     0.09200
H107        H  0.02737136  0.61493524  0.39474193     0.06730
H108        H  0.01920482  0.66082157  0.23231029     0.06570
O109        O  0.87073354  0.93883771  0.00343248    -0.86010
O110        O  0.16974112  0.93855898  0.99636759    -0.86170
O111        O  0.02489405  0.87480036  0.90748714    -0.87840
O112        O  0.02113849  0.87206797  0.08043484    -0.86600
O113        O  0.02584314  0.93586996  0.14576926    -0.86190
O114        O  0.02871928  0.94087609  0.84544755    -0.87560
O115        O  0.10541839  0.87363778  0.99509735    -0.86040
O116        O  0.93252376  0.87334735  0.99660559    -0.85620
Zr117      Zr  0.01993178  0.91650354  0.99503007     2.84310
O118        O  0.07492428  0.96972425  0.04899521    -1.07600
O119        O  0.96670771  0.97073723  0.94288711    -1.08330
C120        C  0.88474291  0.88977544  0.00167845     1.07100
C121        C  0.15399033  0.88940000  0.99572631     1.07040
C122        C  0.02966058  0.89168965  0.85962925     1.10030
C123        C  0.02382254  0.88733700  0.12920342     1.07810
H124        H  0.09560023  0.95064314  0.92208761     0.33360
O125        O  0.07345562  0.97209967  0.94413839    -1.28550
H126        H  0.94747598  0.94729442  0.07261841     0.33040
O127        O  0.96919075  0.96947356  0.05055064    -1.30230
O128        O  0.17001470  0.11438738  0.99919364    -0.86000
O129        O  0.87389306  0.11081442  0.99965339    -0.87500
O130        O  0.10666185  0.02758193  0.84804445    -0.86080
O131        O  0.11023081  0.02044228  0.14717919    -0.86130
O132        O  0.93883985  0.02316579  0.14859381    -0.85840
O133        O  0.93445357  0.02182822  0.84920462    -0.85650
O134        O  0.02230784  0.17614915  0.91563045    -0.86020
O135        O  0.02350046  0.17247459  0.08896591    -0.85480
O136        O  0.01848859  0.11274203  0.84984757    -0.86540
O137        O  0.02691658  0.10648448  0.15114437    -0.85700
O138        O  0.17030291  0.02380362  0.91207168    -0.86100
O139        O  0.87186090  0.02305153  0.91370473    -0.85820
O140        O  0.87444152  0.02474698  0.08495897    -0.85470
O141        O  0.17234720  0.02284658  0.08254021    -0.85880
O142        O  0.10629422  0.17796108  0.00216743    -0.86180
O143        O  0.93793967  0.17583129  0.00188942    -0.87510
Zr144      Zr  0.12780776  0.02555711  0.99757476     2.83100
Zr145      Zr  0.91627082  0.02418890  0.99898201     2.83500
Zr146      Zr  0.02095300  0.02582887  0.89153196     2.84090
Zr147      Zr  0.02391034  0.02231936  0.10435704     2.83360
Zr148      Zr  0.02239662  0.13165449  0.00099981     2.84220
O149        O  0.96987707  0.07719591  0.05375052    -1.08090
O150        O  0.07485400  0.07991901  0.94551032    -1.07590
C151        C  0.15450310  0.16329339  0.00145555     1.07070
C152        C  0.88951078  0.15994820  0.00027974     1.09690
C153        C  0.15524216  0.02541598  0.86342233     1.07250
C154        C  0.15837169  0.02117082  0.13125325     1.07610
C155        C  0.89017966  0.02449457  0.13349648     1.07190
C156        C  0.88626244  0.02164957  0.86503737     1.06740
C157        C  0.01983398  0.16129804  0.86673949     1.07170
C158        C  0.02581521  0.15549343  0.13694203     1.06680
H159        H  0.94659664  0.10066459  0.92483426     0.33360
O160        O  0.96879906  0.07853854  0.94624720    -1.29180
H161        H  0.09888286  0.09963592  0.07496496     0.33380
O162        O  0.07638222  0.07786322  0.05263368    -1.30570
C163        C  0.98771425  0.76817500  0.21219207    -0.11790
C164        C  0.03068534  0.76669930  0.24723852     0.05220
C165        C  0.07145027  0.80520239  0.24312767    -0.07070
C166        C  0.06727885  0.84499382  0.20492897    -0.07820
C167        C  0.02450487  0.84606130  0.16979966    -0.02370
C168        C  0.98385297  0.80760154  0.17364694     0.04450
N169        N  0.93750269  0.80951820  0.14079607     0.66950
H170        H  0.95602931  0.73930811  0.21611118     0.15850
H171        H  0.09863775  0.87427705  0.20116690     0.15560
N172        N  0.11813833  0.80312242  0.27540495     0.74660
O173        O  0.91214132  0.76738551  0.12967752    -0.38790
O174        O  0.91807921  0.85363278  0.12835627    -0.38730
O175        O  0.13901172  0.75905184  0.28541845    -0.39440
O176        O  0.14254568  0.84544181  0.28791091    -0.39510
C177        C  0.05109634  0.48673360  0.29344162    -0.11790
C178        C  0.99997563  0.46520316  0.29333410     0.05220
C179        C  0.95635311  0.49922813  0.29050120    -0.07070
C180        C  0.96537816  0.55449527  0.29228305    -0.07820
C181        C  0.01644445  0.57575186  0.29694973    -0.02370
C182        C  0.06011581  0.54175760  0.29564901     0.04450
N183        N  0.11329366  0.56205088  0.29984874     0.66950
H184        H  0.08419955  0.46015509  0.29578193     0.15850
H185        H  0.93238783  0.58126230  0.29289319     0.15560
N186        N  0.90325884  0.47850295  0.28792464     0.74660
O187        O  0.14932916  0.53316636  0.31791791    -0.38790
O188        O  0.12538468  0.60730722  0.28211451    -0.38730
O189        O  0.89400919  0.43161189  0.27203112    -0.39440
O190        O  0.86491840  0.50839816  0.29722380    -0.39510
C191        C  0.06583444  0.25039237  0.24768023    -0.11790
C192        C  0.01677290  0.27149561  0.26033157     0.05220
C193        C  0.97068440  0.25220479  0.23420571    -0.07070
C194        C  0.97625525  0.21501387  0.19328150    -0.07820
C195        C  0.02533256  0.19523096  0.17941012    -0.02370
C196        C  0.07102082  0.21147342  0.20795631     0.04450
N197        N  0.12238932  0.18988727  0.19749931     0.66950
H198        H  0.10041216  0.26540086  0.26840614     0.15850
H199        H  0.94173833  0.20066850  0.17194802     0.15560
N200        N  0.91822332  0.26836529  0.24869775     0.74660
O201        O  0.16068628  0.20091573  0.22780818    -0.38790
O202        O  0.13045155  0.16042472  0.15799128    -0.38730
O203        O  0.91055352  0.30551475  0.28128658    -0.39440
O204        O  0.87861974  0.24339884  0.23047926    -0.39510
C205        C  0.08839422  0.73242177  0.51758136    -0.11790
C206        C  0.04478646  0.71871190  0.54828816     0.05220
C207        C  0.99634846  0.70583397  0.52334161    -0.07070
C208        C  0.99417244  0.70213914  0.46819432    -0.07820
C209        C  0.03874343  0.71186457  0.43746738    -0.02370
C210        C  0.08620836  0.72884796  0.46219752     0.04450
N211        N  0.13319080  0.73910691  0.43252565     0.66950
H212        H  0.12550251  0.74173708  0.53701057     0.15850
H213        H  0.95766167  0.69032812  0.44887712     0.15560
N214        N  0.94969158  0.69509842  0.55345655     0.74660
O215        O  0.16681661  0.77259086  0.44936726    -0.38790
O216        O  0.14425433  0.71074762  0.39299751    -0.38730
O217        O  0.94213637  0.71908835  0.59657385    -0.39440
O218        O  0.91339831  0.66582453  0.53457191    -0.39510
C219        C  0.01175927  0.77436765  0.76682306    -0.11790
C220        C  0.05777197  0.77654855  0.73723572     0.05220
C221        C  0.09569259  0.81719655  0.74778345    -0.07070
C222        C  0.08485207  0.85522970  0.78745317    -0.07820
C223        C  0.03891401  0.85180734  0.81776855    -0.02370
C224        C  0.00259581  0.81059857  0.80724051     0.04450
N225        N  0.95519679  0.80547952  0.83613703     0.66950
H226        H  0.98260116  0.74344878  0.75879025     0.15850
H227        H  0.11307616  0.88678271  0.79612085     0.15560
N228        N  0.14539972  0.81959443  0.72074921     0.74660
O229        O  0.91225700  0.80246019  0.81097751    -0.38790
O230        O  0.95739024  0.78914094  0.88302560    -0.38730
O231        O  0.16259259  0.77975864  0.69612479    -0.39440
O232        O  0.17492419  0.86006239  0.72575180    -0.39510
C233        C  0.02207109  0.39632491  0.53030418    -0.11790
C234        C  0.03089353  0.34886250  0.55790432     0.05220
C235        C  0.03140295  0.30091650  0.52793560    -0.07070
C236        C  0.02038350  0.30232762  0.47307680    -0.07820
C237        C  0.01675450  0.35093353  0.44560255    -0.02370
C238        C  0.02311615  0.39844211  0.47564024     0.04450
N239        N  0.03716278  0.44855043  0.45230002     0.66950
H240        H  0.01834098  0.43379918  0.55087189     0.15850
H241        H  0.01744594  0.26501746  0.45189601     0.15560
N242        N  0.04601853  0.25130903  0.55106775     0.74660
O243        O  0.01778524  0.49118022  0.46952274    -0.38790
O244        O  0.07466491  0.45102369  0.42008963    -0.38730
O245        O  0.02311350  0.20873561  0.53671443    -0.39440
O246        O  0.08743765  0.24873550  0.57862671    -0.39510
C247        C  0.00512977  0.49894581  0.67723561    -0.11790
C248        C  0.04787185  0.47368074  0.70119204     0.05220
C249        C  0.08793396  0.50468241  0.72593057    -0.07070
C250        C  0.08673897  0.56036921  0.72034376    -0.07820
C251        C  0.04695625  0.58488133  0.69084217    -0.02370
C252        C  0.00384245  0.55411117  0.67210925     0.04450
N253        N  0.95936414  0.57811373  0.64670689     0.66950
H254        H  0.97365456  0.47498611  0.65988238     0.15850
H255        H  0.11906619  0.58442918  0.73572600     0.15560
N256        N  0.13067728  0.48113170  0.75477721     0.74660
O257        O  0.93419058  0.55335189  0.61089871    -0.38790
O258        O  0.94186353  0.62169349  0.66359862    -0.38730
O259        O  0.14467293  0.43405616  0.74569366    -0.39440
O260        O  0.15545774  0.50800793  0.78934705    -0.39510
C261        C  0.06373957  0.23731089  0.82500196    -0.11790
C262        C  0.01976769  0.20346489  0.82677002     0.05220
C263        C  0.97885946  0.20882254  0.78891999    -0.07070
C264        C  0.98396409  0.24781634  0.74962927    -0.07820
C265        C  0.02821144  0.28150074  0.74781662    -0.02370
C266        C  0.06903588  0.27553021  0.78551239     0.04450
N267        N  0.11702353  0.30623559  0.78290709     0.66950
H268        H  0.09538592  0.23229101  0.85335324     0.15850
H269        H  0.95250050  0.25324297  0.72122234     0.15560
N270        N  0.93136876  0.17700886  0.79085129     0.74660
O271        O  0.14120304  0.31953323  0.82473487    -0.38790
O272        O  0.13890144  0.31403458  0.73908393    -0.38730
O273        O  0.91548015  0.15801069  0.83387526    -0.39440
O274        O  0.90177505  0.17312762  0.75077214    -0.39510
C275        C  0.76023567  0.04059646  0.20548678    -0.11790
C276        C  0.77066054  0.01548813  0.25373832     0.05220
C277        C  0.82146051  0.99457151  0.26256988    -0.07070
C278        C  0.86007482  0.00020799  0.22362527    -0.07820
C279        C  0.84919847  0.02447132  0.17506109    -0.02370
C280        C  0.79845463  0.04525543  0.16626919     0.04450
N281        N  0.78530462  0.07285402  0.11869733     0.66950
H282        H  0.72231443  0.05843663  0.19860867     0.15850
H283        H  0.89833210  0.98304635  0.23046453     0.15560
N284        N  0.83405256  0.96533224  0.30939283     0.74660
O285        O  0.74175621  0.06376236  0.09595776    -0.38790
O286        O  0.81334804  0.11161612  0.10386034    -0.38730
O287        O  0.80268381  0.93022941  0.32630573    -0.39440
O288        O  0.87909711  0.97002149  0.33028339    -0.39510
C289        C  0.55540246  0.05058555  0.29158668    -0.11790
C290        C  0.57942472  0.00177655  0.30122651     0.05220
C291        C  0.54801379  0.95547781  0.30817711    -0.07070
C292        C  0.49295443  0.96062774  0.30912287    -0.07820
C293        C  0.46928006  0.01029874  0.30336269    -0.02370
C294        C  0.50064384  0.05565424  0.29266128     0.04450
N295        N  0.47795706  0.10745204  0.28628393     0.66950
H296        H  0.57987715  0.08575242  0.28658385     0.15850
H297        H  0.46827783  0.92627590  0.31719924     0.15560
N298        N  0.57101531  0.90398095  0.31657506     0.74660
O299        O  0.50435103  0.14880805  0.29790412    -0.38790
O300        O  0.43322270  0.11247110  0.26518782    -0.38730
O301        O  0.61833626  0.89549685  0.30504641    -0.39440
O302        O  0.54291698  0.86535751  0.33172865    -0.39510
C303        C  0.28980595  0.03962206  0.20274062    -0.11790
C304        C  0.27884845  0.01843082  0.25261310     0.05220
C305        C  0.22797559  0.99702613  0.26204158    -0.07070
C306        C  0.18938916  0.99936763  0.22216662    -0.07820
C307        C  0.20070049  0.02001702  0.17207037    -0.02370
C308        C  0.25211999  0.03946987  0.16235042     0.04450
N309        N  0.26695904  0.05987771  0.11199817     0.66950
H310        H  0.32818168  0.05678357  0.19482793     0.15850
H311        H  0.15064295  0.98297147  0.22982594     0.15560
N312        N  0.21524347  0.97094413  0.31066220     0.74660
O313        O  0.27883152  0.10849318  0.10761619    -0.38790
O314        O  0.27942423  0.02791499  0.07574261    -0.38730
O315        O  0.16979421  0.97491470  0.32975504    -0.39440
O316        O  0.24703445  0.93886155  0.33120472    -0.39510
C317        C  0.36609967  0.08412361  0.52655557    -0.11790
C318        C  0.33420013  0.04602557  0.55153433     0.05220
C319        C  0.29956886  0.01426842  0.52053714    -0.07070
C320        C  0.30091488  0.01811011  0.46540282    -0.07820
C321        C  0.33742351  0.05162886  0.44043464    -0.02370
C322        C  0.36832178  0.08737203  0.47138689     0.04450
N323        N  0.40333626  0.12555466  0.44754988     0.66950
H324        H  0.39143864  0.10977975  0.55037878     0.15850
H325        H  0.27729657  0.99048234  0.44196164     0.15560
N326        N  0.26760751  0.97350973  0.54363266     0.74660
O327        O  0.39205427  0.14591630  0.40358958    -0.38790
O328        O  0.44396345  0.14181526  0.47197624    -0.38730
O329        O  0.22010374  0.96818865  0.52965837    -0.39440
O330        O  0.28901256  0.93704784  0.56974170    -0.39510
C331        C  0.28713053  0.03337054  0.79240609    -0.11790
C332        C  0.27326757  0.01831754  0.74052454     0.05220
C333        C  0.22006054  0.00383433  0.73013830    -0.07070
C334        C  0.18242346  0.00900226  0.77014626    -0.07820
C335        C  0.19667352  0.02382288  0.82200013    -0.02370
C336        C  0.25058034  0.03379986  0.83323774     0.04450
N337        N  0.26982578  0.04338785  0.88575697     0.66950
H338        H  0.32697688  0.04559673  0.80207514     0.15850
H339        H  0.14197960  0.99810920  0.76122900     0.15560
N340        N  0.20405680  0.97995588  0.68093279     0.74660
O341        O  0.30695402  0.01584265  0.90364573    -0.38790
O342        O  0.25672148  0.08474172  0.91035469    -0.38730
O343        O  0.22984858  0.94184348  0.66219462    -0.39440
O344        O  0.15992890  0.99066671  0.66084953    -0.39510
C345        C  0.67990528  0.07037135  0.52509102    -0.11790
C346        C  0.70605267  0.03056174  0.55315852     0.05220
C347        C  0.73867065  0.99490317  0.52551121    -0.07070
C348        C  0.74079474  0.99762524  0.47017985    -0.07820
C349        C  0.71017146  0.03399009  0.44214159    -0.02370
C350        C  0.68139752  0.07262953  0.47000347     0.04450
N351        N  0.65200533  0.11290111  0.44292632     0.66950
H352        H  0.65671681  0.09910085  0.54643595     0.15850
H353        H  0.76254772  0.96788441  0.44864700     0.15560
N354        N  0.76644796  0.95329896  0.55193064     0.74660
O355        O  0.61218122  0.13315804  0.46412001    -0.38790
O356        O  0.66774870  0.13112230  0.39948054    -0.38730
O357        O  0.74403218  0.92582476  0.58683439    -0.39440
O358        O  0.81092456  0.93931255  0.53555992    -0.39510
C359        C  0.48867342  0.06247165  0.69882754    -0.11790
C360        C  0.46386859  0.01273433  0.69200376     0.05220
C361        C  0.49430876  0.96596435  0.69076212    -0.07070
C362        C  0.54941294  0.97152515  0.69240732    -0.07820
C363        C  0.57407429  0.02171043  0.69470123    -0.02370
C364        C  0.54353660  0.06781496  0.70002049     0.04450
N365        N  0.56717094  0.12019127  0.70295966     0.66950
H366        H  0.46481227  0.09782899  0.70002593     0.15850
H367        H  0.57367455  0.93671617  0.68814424     0.15560
N368        N  0.47098366  0.91338404  0.68525021     0.74660
O369        O  0.54166192  0.16024298  0.68825665    -0.38790
O370        O  0.61165685  0.12741917  0.72435893    -0.38730
O371        O  0.42191701  0.90657750  0.68106642    -0.39440
O372        O  0.49963569  0.87279284  0.68619176    -0.39510
C373        C  0.75612193  0.00087404  0.79189355    -0.11790
C374        C  0.76553113  0.02768517  0.74431778     0.05220
C375        C  0.81519095  0.05286172  0.73743862    -0.07070
C376        C  0.85448331  0.04706620  0.77604505    -0.07820
C377        C  0.84440593  0.02130271  0.82393176    -0.02370
C378        C  0.79376459  0.99915526  0.83231230     0.04450
N379        N  0.77945479  0.97433381  0.88103630     0.66950
H380        H  0.71923473  0.98002549  0.79794964     0.15850
H381        H  0.89242830  0.06589135  0.76992809     0.15560
N382        N  0.82551859  0.08731817  0.69370890     0.74660
O383        O  0.73479307  0.98247115  0.90058781    -0.38790
O384        O  0.80777313  0.93861306  0.90044414    -0.38730
O385        O  0.79295223  0.12263821  0.68134629    -0.39440
O386        O  0.86990552  0.08716934  0.67185083    -0.39510
C387        C  0.24243400  0.85850070  0.96857153    -0.11790
C388        C  0.19508834  0.84794105  0.99495205     0.05220
C389        C  0.18761191  0.79763338  0.01865544    -0.07070
C390        C  0.22780453  0.76012925  0.01653104    -0.07820
C391        C  0.27597811  0.77158427  0.99231943    -0.02370
C392        C  0.28271413  0.82081426  0.96626939     0.04450
N393        N  0.32940165  0.83272440  0.93662542     0.66950
H394        H  0.24768294  0.89613895  0.94865113     0.15850
H395        H  0.22270055  0.72295926  0.03734693     0.15560
N396        N  0.14134217  0.78516637  0.04835685     0.74660
O397        O  0.35308212  0.79628031  0.91239531    -0.38790
O398        O  0.34415534  0.88034323  0.93020834    -0.38730
O399        O  0.12044996  0.73948409  0.04464340    -0.39440
O400        O  0.12677994  0.81618700  0.08457228    -0.39510
C401        C  0.39797373  0.50185328  0.99673102    -0.11790
C402        C  0.35118570  0.47224624  0.98823856     0.05220
C403        C  0.30365387  0.50126792  0.98417259    -0.07070
C404        C  0.30435009  0.55681062  0.99372541    -0.07820
C405        C  0.35196685  0.58561680  0.99969713    -0.02370
C406        C  0.39938475  0.55710534  0.99542715     0.04450
N407        N  0.44913140  0.58314755  0.98591722     0.66950
H408        H  0.43517273  0.48259532  0.00234733     0.15850
H409        H  0.26743260  0.57756802  0.99453299     0.15560
N410        N  0.25520485  0.47639547  0.96747310     0.74660
O411        O  0.49089777  0.56537373  0.00595901    -0.38790
O412        O  0.45222605  0.61983062  0.95230648    -0.38730
O413        O  0.21238720  0.49025799  0.98787525    -0.39440
O414        O  0.25410569  0.44741222  0.92661361    -0.39510
C415        C  0.23977271  0.28555653  0.03453363    -0.11790
C416        C  0.27758008  0.28227551  0.99475765     0.05220
C417        C  0.27278105  0.24144638  0.95619580    -0.07070
C418        C  0.23217645  0.20374379  0.96006805    -0.07820
C419        C  0.19520546  0.20586529  0.00043804    -0.02370
C420        C  0.19798817  0.24851110  0.03738093     0.04450
N421        N  0.15998229  0.25466822  0.07846446     0.66950
H422        H  0.24282452  0.31714646  0.06370133     0.15850
H423        H  0.22778363  0.17384782  0.92958993     0.15560
N424        N  0.30749411  0.23864402  0.91181440     0.74660
O425        O  0.17519483  0.26898459  0.12395796    -0.38790
O426        O  0.11193027  0.25869332  0.06679623    -0.38730
O427        O  0.32167778  0.19404566  0.89423457    -0.39440
O428        O  0.31903270  0.28005629  0.88633085    -0.39510
C429        C  0.55167480  0.30368943  0.02173063    -0.11790
C430        C  0.58025722  0.32179534  0.97830880     0.05220
C431        C  0.55391353  0.33314634  0.93052799    -0.07070
C432        C  0.49885622  0.33168801  0.92939420    -0.07820
C433        C  0.46991500  0.32004830  0.97480583    -0.02370
C434        C  0.49655542  0.30345587  0.02100218     0.04450
N435        N  0.46910609  0.29145477  0.06891313     0.66950
H436        H  0.57224287  0.29527033  0.05827131     0.15850
H437        H  0.47815655  0.34334700  0.89388304     0.15560
N438        N  0.58227174  0.34912505  0.88413779     0.74660
O439        O  0.48550962  0.25499911  0.09852449    -0.38790
O440        O  0.43422033  0.32221721  0.08592431    -0.38730
O441        O  0.62841951  0.33322659  0.87632901    -0.39440
O442        O  0.55991580  0.37594578  0.84875162    -0.39510
C443        C  0.76537609  0.23581222  0.96800494    -0.11790
C444        C  0.77111759  0.28156663  0.00003083     0.05220
C445        C  0.81712693  0.28707481  0.03173982    -0.07070
C446        C  0.85585569  0.24775382  0.02943207    -0.07820
C447        C  0.84886119  0.20153271  0.99861566    -0.02370
C448        C  0.80276142  0.19555110  0.96767070     0.04450
N449        N  0.79370327  0.14981097  0.93442107     0.66950
H450        H  0.73175821  0.23145537  0.94180970     0.15850
H451        H  0.89064649  0.25202426  0.05412127     0.15560
N452        N  0.82420384  0.33027610  0.06854790     0.74660
O453        O  0.74839499  0.12893216  0.93122829    -0.38790
O454        O  0.82880411  0.13457397  0.90313295    -0.38730
O455        O  0.78764916  0.34251522  0.09951694    -0.39440
O456        O  0.86910007  0.35133537  0.07519036    -0.39510
C457        C  0.54529191  0.71464136  0.09051956    -0.11790
C458        C  0.57187983  0.72929553  0.04452905     0.05220
C459        C  0.54390439  0.75397982  0.00307708    -0.07070
C460        C  0.48907242  0.75854611  0.00713611    -0.07820
C461        C  0.46178746  0.73781828  0.05050096    -0.02370
C462        C  0.49054653  0.71911660  0.09439716     0.04450
N463        N  0.46436066  0.70175232  0.14155574     0.66950
H464        H  0.56734237  0.69734263  0.12270775     0.15850
H465        H  0.46696936  0.77253447  0.97337225     0.15560
N466        N  0.56913832  0.77067369  0.95514385     0.74660
O467        O  0.48711844  0.67128583  0.17356206    -0.38790
O468        O  0.41985044  0.71969946  0.15336031    -0.38730
O469        O  0.60691828  0.74493517  0.93625484    -0.39440
O470        O  0.54999816  0.80802642  0.92844086    -0.39510
C471        C  0.67704524  0.49183371  0.05346756    -0.11790
C472        C  0.70400393  0.47120547  0.00998599     0.05220
C473        C  0.73238641  0.50638994  0.97705733    -0.07070
C474        C  0.73014701  0.56158824  0.98708686    -0.07820
C475        C  0.69994412  0.58221466  0.02856078    -0.02370
C476        C  0.67507896  0.54653663  0.06358203     0.04450
N477        N  0.64747534  0.56511235  0.10933403     0.66950
H478        H  0.65658242  0.46476170  0.07955055     0.15850
H479        H  0.74925686  0.58881618  0.96020949     0.15560
N480        N  0.76114780  0.48763152  0.93208942     0.74660
O481        O  0.60757526  0.54005217  0.12567582    -0.38790
O482        O  0.66537460  0.60384547  0.13618198    -0.38730
O483        O  0.74450135  0.44845829  0.90511113    -0.39440
O484        O  0.80086553  0.51331914  0.91623784    -0.39510
C485        C  0.79048815  0.77277295  0.97969042    -0.11790
C486        C  0.76371867  0.77212063  0.02760848     0.05220
C487        C  0.77570946  0.81119666  0.06639520    -0.07070
C488        C  0.81474923  0.84963439  0.05582433    -0.07820
C489        C  0.84241926  0.84958461  0.00812831    -0.02370
C490        C  0.82882431  0.81167642  0.96864145     0.04450
N491        N  0.85027236  0.81374685  0.91633300     0.66950
H492        H  0.77938812  0.74378776  0.94966454     0.15850
H493        H  0.82456687  0.87931791  0.08560610     0.15560
N494        N  0.74986313  0.81183836  0.11673741     0.74660
O495        O  0.84077665  0.77630875  0.88405867    -0.38790
O496        O  0.87247681  0.85543051  0.89971497    -0.38730
O497        O  0.73501168  0.76905274  0.13802531    -0.39440
O498        O  0.74634240  0.85475829  0.14251027    -0.39510
loop_ 
_geom_bond_atom_site_label_1 
_geom_bond_atom_site_label_2 
_geom_bond_distance 
_geom_bond_site_symmetry_2 
_ccdc_geom_bond_type 
C1            C2   1.408       .  A
C1            C6   1.405       .  A
C1          C486   1.479       .  S
C2            C3   1.404       .  A
C2            H7   1.084       .  S
C3            C4   1.405       .  A
C3          C475   1.491       .  S
C4            C5   1.402       .  A
C4            H8   1.084       .  S
C5            C6   1.400       .  A
C5          C458   1.479       .  S
C6            H9   1.084       .  S
C10          C11   1.418   1_556  A
C10          C15   1.412       .  A
C10         C444   1.499   1_556  S
C11          C12   1.409   1_554  A
C11          H16   1.082       .  S
C12          C13   1.399       .  A
C12         C472   1.485   1_556  S
C13          C14   1.395       .  A
C13          H17   1.085       .  S
C14          C15   1.394       .  A
C14         C430   1.473       .  S
C15          H18   1.083       .  S
C19          C20   1.405       .  A
C19          C24   1.415       .  A
C19         C416   1.485       .  S
C20          C21   1.392       .  A
C20          H25   1.084       .  S
C21          C22   1.395       .  A
C21         C433   1.478       .  S
C22          C23   1.410       .  A
C22          H26   1.080       .  S
C23          C24   1.416       .  A
C23         C402   1.517       .  S
C24          H27   1.079   1_556  S
C28          C29   1.414   1_554  A
C28          C33   1.409       .  A
C28         C391   1.488   1_554  S
C29          C30   1.411   1_556  A
C29          H34   1.082       .  S
C30          C31   1.405       .  A
C30         C405   1.506   1_554  S
C31          C32   1.396       .  A
C31          H35   1.081       .  S
C32          C33   1.398       .  A
C32         C461   1.484       .  S
C33          H36   1.083       .  S
C37          C38   1.412       .  A
C37          C42   1.414       .  A
C37         C374   1.498       .  S
C38          C39   1.396       .  A
C38          H43   1.082       .  S
C39          C40   1.394       .  A
C39         C363   1.473       .  S
C40          C41   1.400       .  A
C40          H44   1.085       .  S
C41          C42   1.404       .  A
C41         C346   1.485       .  S
C42          H45   1.081       .  S
C46          C47   1.415       .  A
C46          C51   1.418       .  A
C46         C332   1.505       .  S
C47          C48   1.397       .  A
C47          H52   1.082   1_545  S
C48          C49   1.392       .  A
C48         C360   1.473       .  S
C49          C50   1.398       .  A
C49          H53   1.085       .  S
C50          C51   1.409       .  A
C50         C318   1.486       .  S
C51          H54   1.081       .  S
C55          C56   1.410       .  A
C55          C60   1.410       .  A
C55         C304   1.491       .  S
C56          C57   1.404       .  A
C56          H61   1.083       .  S
C57          C58   1.403       .  A
C57         C321   1.485       .  S
C58          C59   1.398       .  A
C58          H62   1.084       .  S
C59          C60   1.399       .  A
C59         C293   1.476       .  S
C60          H63   1.083   1_545  S
C64          C65   1.413       .  A
C64          C69   1.414       .  A
C64         C276   1.496       .  S
C65          C66   1.403       .  A
C65          H70   1.083       .  S
C66          C67   1.398       .  A
C66         C349   1.479       .  S
C67          C68   1.394       .  A
C67          H71   1.085       .  S
C68          C69   1.401       .  A
C68         C290   1.475       .  S
C69          H72   1.083   1_545  S
C73          C74   1.406       .  A
C73          C78   1.415       .  A
C73         C265   1.482       .  S
C74          C75   1.393       .  A
C74          H79   1.084       .  S
C75          C76   1.392       .  A
C75         C248   1.475       .  S
C76          C77   1.408       .  A
C76          H80   1.082       .  S
C77          C78   1.415       .  A
C77         C234   1.513       .  S
C78          H81   1.080       .  S
C82          C83   1.406       .  A
C82          C87   1.407       .  A
C82         C220   1.476       .  S
C83          C84   1.397       .  A
C83          H88   1.084       .  S
C84          C85   1.402       .  A
C84         C251   1.481       .  S
C85          C86   1.401       .  A
C85          H89   1.085       .  S
C86          C87   1.403       .  A
C86         C206   1.478       .  S
C87          H90   1.084       .  S
C91          C92   1.410       .  A
C91          C96   1.400       .  A
C91         C192   1.472       .  S
C92          C93   1.416       .  A
C92          H97   1.080       .  S
C93          C94   1.411   1_455  A
C93         C237   1.513       .  S
C94          C95   1.395       .  A
C94          H98   1.080       .  S
C95          C96   1.391   1_655  A
C95         C178   1.473       .  S
C96          H99   1.084       .  S
C100        C101   1.409       .  A
C100        C105   1.405       .  A
C100        C164   1.480       .  S
C101        C102   1.403       .  A
C101        H106   1.084       .  S
C102        C103   1.401       .  A
C102        C209   1.478       .  S
C103        C104   1.398       .  A
C103        H107   1.085       .  S
C104        C105   1.397       .  A
C104        C181   1.471       .  S
C105        H108   1.084       .  S
O109       Zr145   2.430   1_564  S
O109        C120   1.290       .  A
O110       Zr144   2.448   1_565  S
O110        C121   1.295       .  A
O111       Zr117   2.454       .  S
O111        C122   1.295       .  A
O112       Zr117   2.445   1_554  S
O112        C123   1.293       .  A
O113       Zr147   2.423   1_565  S
O113        C123   1.289       .  A
O114       Zr146   2.440   1_565  S
O114        C122   1.292       .  A
O115       Zr117   2.441       .  S
O115        C121   1.293       .  A
O116       Zr117   2.463   1_655  S
O116        C120   1.297   1_556  A
Zr117       O118   2.349   1_556  S
Zr117       O119   2.343   1_455  S
Zr117       O127   2.340   1_456  S
Zr117       O125   2.342       .  S
O118       Zr144   2.343   1_564  S
O118       Zr147   2.336   1_565  S
O119       Zr145   2.352   1_565  S
O119       Zr146   2.351   1_665  S
C120        C489   1.479       .  S
C121        C388   1.487       .  S
C122        C223   1.478       .  S
C123        C167   1.468       .  S
H124        O125   0.965       .  S
O125       Zr144   2.335   1_565  S
O125       Zr146   2.332   1_565  S
H126        O127   0.965       .  S
O127       Zr145   2.338   1_564  S
O127       Zr147   2.337   1_665  S
O128       Zr144   2.467       .  S
O128        C151   1.298   1_556  A
O129       Zr145   2.445       .  S
O129        C152   1.293   1_556  A
O130       Zr146   2.453       .  S
O130        C153   1.295       .  A
O131       Zr147   2.444       .  S
O131        C154   1.293       .  A
O132       Zr147   2.447   1_655  S
O132        C155   1.294       .  A
O133       Zr146   2.442   1_655  S
O133        C156   1.294       .  A
O134       Zr148   2.444   1_556  S
O134        C157   1.293       .  A
O135       Zr148   2.449       .  S
O135        C158   1.293       .  A
O136       Zr146   2.437       .  S
O136        C157   1.292       .  A
O137       Zr147   2.420       .  S
O137        C158   1.288       .  A
O138       Zr144   2.432       .  S
O138        C153   1.290       .  A
O139       Zr145   2.432       .  S
O139        C156   1.291       .  A
O140       Zr145   2.434   1_554  S
O140        C155   1.291       .  A
O141       Zr144   2.428   1_554  S
O141        C154   1.289       .  A
O142       Zr148   2.419       .  S
O142        C151   1.286       .  A
O143       Zr148   2.433   1_655  S
O143        C152   1.291       .  A
Zr144       O150   2.340       .  S
Zr144       O162   2.333   1_556  S
Zr145       O149   2.337   1_556  S
Zr145       O160   2.335       .  S
Zr146       O150   2.345       .  S
Zr146       O160   2.345   1_455  S
Zr147       O149   2.343   1_455  S
Zr147       O162   2.337       .  S
Zr148       O149   2.337   1_455  S
Zr148       O150   2.347   1_554  S
Zr148       O162   2.341       .  S
Zr148       O160   2.339   1_454  S
C151        C419   1.481       .  S
C152        C447   1.482   1_554  S
C153        C335   1.495       .  S
C154        C307   1.489       .  S
C155        C279   1.489       .  S
C156        C377   1.484       .  S
C157        C262   1.472       .  S
C158        C195   1.465       .  S
H159        O160   0.965       .  S
H161        O162   0.965       .  S
C163        C164   1.405   1_655  A
C163        C168   1.401       .  A
C163        H170   1.084       .  S
C164        C165   1.415       .  A
C165        C166   1.402       .  A
C165        N172   1.439       .  S
C166        C167   1.402       .  A
C166        H171   1.084       .  S
C167        C168   1.412   1_455  A
C168        N169   1.440       .  S
N169        O173   1.263       .  A
N169        O174   1.262       .  A
N172        O175   1.262       .  A
N172        O176   1.263       .  A
C177        C178   1.403   1_455  A
C177        C182   1.401       .  A
C177        H184   1.084       .  S
C178        C179   1.413       .  A
C179        C180   1.407       .  A
C179        N186   1.443       .  S
C180        C181   1.403   1_655  A
C180        H185   1.084       .  S
C181        C182   1.412       .  A
C182        N183   1.443       .  S
N183        O187   1.263       .  A
N183        O188   1.262       .  A
N186        O189   1.263       .  A
N186        O190   1.263       .  A
C191        C192   1.402       .  A
C191        C196   1.408       .  A
C191        H198   1.084       .  S
C192        C193   1.421   1_455  A
C193        C194   1.402       .  A
C193        N200   1.451       .  S
C194        C195   1.398   1_655  A
C194        H199   1.084       .  S
C195        C196   1.419       .  A
C196        N197   1.448       .  S
N197        O201   1.263       .  A
N197        O202   1.262       .  A
N200        O203   1.261       .  A
N200        O204   1.263       .  A
C205        C206   1.402       .  A
C205        C210   1.407       .  A
C205        H212   1.084       .  S
C206        C207   1.414   1_455  A
C207        C208   1.402       .  A
C207        N214   1.441       .  S
C208        C209   1.402   1_655  A
C208        H213   1.084       .  S
C209        C210   1.416       .  A
C210        N211   1.440       .  S
N211        O215   1.263       .  A
N211        O216   1.262       .  A
N214        O217   1.263       .  A
N214        O218   1.263       .  A
C219        C220   1.397       .  A
C219        C224   1.390       .  A
C219        H226   1.085   1_455  S
C220        C221   1.419       .  A
C221        C222   1.415       .  A
C221        N228   1.445       .  S
C222        C223   1.407       .  A
C222        H227   1.084       .  S
C223        C224   1.403       .  A
C224        N225   1.422   1_455  S
N225        O229   1.262       .  A
N225        O230   1.262       .  A
N228        O231   1.262       .  A
N228        O232   1.262       .  A
C233        C234   1.408       .  A
C233        C238   1.388       .  A
C233        H240   1.080       .  S
C234        C235   1.421       .  A
C235        C236   1.418       .  A
C235        N242   1.435       .  S
C236        C237   1.415       .  A
C236        H241   1.080       .  S
C237        C238   1.420       .  A
C238        N239   1.439       .  S
N239        O243   1.263       .  A
N239        O244   1.263       .  A
N242        O245   1.263       .  A
N242        O246   1.263       .  A
C247        C248   1.403       .  A
C247        C252   1.396       .  A
C247        H254   1.085   1_455  S
C248        C249   1.415       .  A
C249        C250   1.410       .  A
C249        N256   1.442       .  S
C250        C251   1.406       .  A
C250        H255   1.083       .  S
C251        C252   1.412       .  A
C252        N253   1.440   1_455  S
N253        O257   1.263       .  A
N253        O258   1.262       .  A
N256        O259   1.262       .  A
N256        O260   1.263       .  A
C261        C262   1.399       .  A
C261        C266   1.399       .  A
C261        H268   1.084       .  S
C262        C263   1.419   1_455  A
C263        C264   1.409       .  A
C263        N270   1.442       .  S
C264        C265   1.402   1_655  A
C264        H269   1.083       .  S
C265        C266   1.416       .  A
C266        N267   1.439       .  S
N267        O271   1.263       .  A
N267        O272   1.263       .  A
N270        O273   1.262       .  A
N270        O274   1.262       .  A
C275        C276   1.406       .  A
C275        C280   1.401       .  A
C275        H282   1.083       .  S
C276        C277   1.419   1_545  A
C277        C278   1.406   1_565  A
C277        N284   1.437       .  S
C278        C279   1.406       .  A
C278        H283   1.084   1_545  S
C279        C280   1.416       .  A
C280        N281   1.436       .  S
N281        O285   1.263       .  A
N281        O286   1.262       .  A
N284        O287   1.263       .  A
N284        O288   1.263       .  A
C289        C290   1.401       .  A
C289        C294   1.402       .  A
C289        H296   1.084       .  S
C290        C291   1.417   1_545  A
C291        C292   1.410       .  A
C291        N298   1.445       .  S
C292        C293   1.403   1_565  A
C292        H297   1.083       .  S
C293        C294   1.413       .  A
C294        N295   1.442       .  S
N295        O299   1.263       .  A
N295        O300   1.262       .  A
N298        O301   1.262       .  A
N298        O302   1.263       .  A
C303        C304   1.405       .  A
C303        C308   1.397       .  A
C303        H310   1.084       .  S
C304        C305   1.419   1_545  A
C305        C306   1.406       .  A
C305        N312   1.438       .  S
C306        C307   1.407   1_565  A
C306        H311   1.084       .  S
C307        C308   1.415       .  A
C308        N309   1.431       .  S
N309        O313   1.262       .  A
N309        O314   1.262       .  A
N312        O315   1.263       .  A
N312        O316   1.263       .  A
C317        C318   1.406       .  A
C317        C322   1.404       .  A
C317        H324   1.084       .  S
C318        C319   1.412       .  A
C319        C320   1.403       .  A
C319        N326   1.432   1_545  S
C320        C321   1.404       .  A
C320        H325   1.084   1_545  S
C321        C322   1.416       .  A
C322        N323   1.441       .  S
N323        O327   1.263       .  A
N323        O328   1.263       .  A
N326        O329   1.262       .  A
N326        O330   1.262       .  A
C331        C332   1.407       .  A
C331        C336   1.398       .  A
C331        H338   1.082       .  S
C332        C333   1.420       .  A
C333        C334   1.408       .  A
C333        N340   1.435   1_545  S
C334        C335   1.408       .  A
C334        H339   1.083   1_545  S
C335        C336   1.418       .  A
C336        N337   1.433       .  S
N337        O341   1.263       .  A
N337        O342   1.260       .  A
N340        O343   1.262       .  A
N340        O344   1.263       .  A
C345        C346   1.405       .  A
C345        C350   1.399       .  A
C345        H352   1.084       .  S
C346        C347   1.416   1_545  A
C347        C348   1.407       .  A
C347        N354   1.437       .  S
C348        C349   1.403   1_565  A
C348        H353   1.084       .  S
C349        C350   1.414       .  A
C350        N351   1.442       .  S
N351        O355   1.263       .  A
N351        O356   1.263       .  A
N354        O357   1.262       .  A
N354        O358   1.263       .  A
C359        C360   1.403       .  A
C359        C364   1.401       .  A
C359        H366   1.084       .  S
C360        C361   1.418   1_545  A
C361        C362   1.408       .  A
C361        N368   1.448       .  S
C362        C363   1.403   1_565  A
C362        H367   1.084       .  S
C363        C364   1.411       .  A
C364        N365   1.443       .  S
N365        O369   1.263       .  A
N365        O370   1.262       .  A
N368        O371   1.262       .  A
N368        O372   1.263       .  A
C373        C374   1.407       .  A
C373        C378   1.399   1_545  A
C373        H380   1.082   1_545  S
C374        C375   1.419       .  A
C375        C376   1.403       .  A
C375        N382   1.436       .  S
C376        C377   1.405       .  A
C376        H381   1.083       .  S
C377        C378   1.416   1_545  A
C378        N379   1.436       .  S
N379        O383   1.263       .  A
N379        O384   1.260       .  A
N382        O385   1.263       .  A
N382        O386   1.263       .  A
C387        C388   1.406       .  A
C387        C392   1.407       .  A
C387        H394   1.084       .  S
C388        C389   1.416   1_556  A
C389        C390   1.402       .  A
C389        N396   1.436       .  S
C390        C391   1.403   1_554  A
C390        H395   1.084       .  S
C391        C392   1.417       .  A
C392        N393   1.441       .  S
N393        O397   1.263       .  A
N393        O398   1.263       .  A
N396        O399   1.263       .  A
N396        O400   1.262       .  A
C401        C402   1.411       .  A
C401        C406   1.391       .  A
C401        H408   1.078   1_556  S
C402        C403   1.425       .  A
C403        C404   1.416       .  A
C403        N410   1.435       .  S
C404        C405   1.410       .  A
C404        H409   1.081       .  S
C405        C406   1.417       .  A
C406        N407   1.441       .  S
N407        O411   1.263   1_556  A
N407        O412   1.263       .  A
N410        O413   1.263       .  A
N410        O414   1.263       .  A
C415        C416   1.403   1_554  A
C415        C420   1.408       .  A
C415        H422   1.083       .  S
C416        C417   1.417       .  A
C417        C418   1.398       .  A
C417        N424   1.439       .  S
C418        C419   1.398   1_556  A
C418        H423   1.079       .  S
C419        C420   1.420       .  A
C420        N421   1.437       .  S
N421        O425   1.262       .  A
N421        O426   1.262       .  A
N424        O427   1.263       .  A
N424        O428   1.263       .  A
C429        C430   1.400   1_554  A
C429        C434   1.403       .  A
C429        H436   1.084       .  S
C430        C431   1.413       .  A
C431        C432   1.401       .  A
C431        N438   1.442       .  S
C432        C433   1.403       .  A
C432        H437   1.084       .  S
C433        C434   1.417   1_556  A
C434        N435   1.439       .  S
N435        O439   1.263       .  A
N435        O440   1.262       .  A
N438        O441   1.263       .  A
N438        O442   1.263       .  A
C443        C444   1.409   1_556  A
C443        C448   1.399       .  A
C443        H450   1.083       .  S
C444        C445   1.420       .  A
C445        C446   1.407       .  A
C445        N452   1.436       .  S
C446        C447   1.405   1_554  A
C446        H451   1.084       .  S
C447        C448   1.412       .  A
C448        N449   1.437       .  S
N449        O453   1.263       .  A
N449        O454   1.262       .  A
N452        O455   1.262       .  A
N452        O456   1.263       .  A
C457        C458   1.402       .  A
C457        C462   1.404       .  A
C457        H464   1.084       .  S
C458        C459   1.416       .  A
C459        C460   1.407       .  A
C459        N466   1.442   1_554  S
C460        C461   1.405       .  A
C460        H465   1.084   1_554  S
C461        C462   1.414       .  A
C462        N463   1.442       .  S
N463        O467   1.263       .  A
N463        O468   1.263       .  A
N466        O469   1.262       .  A
N466        O470   1.263       .  A
C471        C472   1.404       .  A
C471        C476   1.400       .  A
C471        H478   1.084       .  S
C472        C473   1.417   1_554  A
C473        C474   1.412       .  A
C473        N480   1.440       .  S
C474        C475   1.408   1_556  A
C474        H479   1.083       .  S
C475        C476   1.414       .  A
C476        N477   1.440       .  S
N477        O481   1.263       .  A
N477        O482   1.263       .  A
N480        O483   1.262       .  A
N480        O484   1.263       .  A
C485        C486   1.398   1_556  A
C485        C490   1.404       .  A
C485        H492   1.084       .  S
C486        C487   1.414       .  A
C487        C488   1.406       .  A
C487        N494   1.441       .  S
C488        C489   1.405       .  A
C488        H493   1.084       .  S
C489        C490   1.416   1_554  A
C490        N491   1.440       .  S
N491        O495   1.263       .  A
N491        O496   1.262       .  A
N494        O497   1.263       .  A
N494        O498   1.263       .  A
