geometry optimzed in LAMMPS
_audit_creation_date              2020-12-01 
_audit_creation_method            'lammps2cif' 
_symmetry_space_group_name_H-M    'P1' 
_symmetry_Int_Tables_number       1 
_symmetry_cell_setting            triclinic 
loop_ 
_symmetry_equiv_pos_as_xyz 
  x,y,z 
_cell_length_a                    40.42462668 
_cell_length_b                    41.65247137239062 
_cell_length_c                    48.41452792533181 
_cell_angle_alpha                 90.0953059875015 
_cell_angle_beta                  88.25868376037594 
_cell_angle_gamma                 90.08126150315853 
loop_ 
_atom_site_label 
_atom_site_type_symbol 
_atom_site_fract_x 
_atom_site_fract_y 
_atom_site_fract_z 
_atom_site_charge 
C1          C  0.25070781  0.27907650  0.48443049     0.03300
C2          C  0.25223573  0.27932503  0.01374711     0.03300
C3          C  0.25438332  0.24978386  0.02772134    -0.17300
C4          C  0.25421597  0.22003504  0.01384990     0.03300
C5          C  0.25128360  0.21971244  0.48469385     0.03300
C6          C  0.25012988  0.24924682  0.47056741    -0.17300
H7          H  0.24847525  0.24898475  0.44823361     0.05300
H8          H  0.25599301  0.24991752  0.05005756     0.05300
O9          O  0.26996276  0.16464904  0.02169166    -0.56800
C10         C  0.25848304  0.06812883  0.04290945     0.75800
O11         O  0.29354530  0.13575912  0.10682654    -0.58000
C12         C  0.25707199  0.19036563  0.03081823     0.75800
C13         C  0.19884841  0.12617436  0.09649806     0.78200
Cd14       Cd  0.26020095  0.13261680  0.06473043     1.37500
O15         O  0.28164942  0.07858901  0.05737702    -0.56800
O16         O  0.20276558  0.11713063  0.07171995    -0.55600
C17         C  0.32145592  0.13228879  0.09449451     0.78100
O18         O  0.22409116  0.13826076  0.10755344    -0.58000
O19         O  0.23722794  0.08854987  0.03577274    -0.56400
O20         O  0.24695305  0.18963971  0.05575434    -0.56400
O21         O  0.32084782  0.13030321  0.06840817    -0.55600
O22         O  0.26888568  0.40972738  0.03553620    -0.56800
C23         C  0.25088663  0.30911353  0.03100224     0.75800
O24         O  0.28069846  0.36089481  0.10959656    -0.58000
C25         C  0.25065982  0.43117674  0.04662234     0.75800
C26         C  0.18364500  0.36402665  0.09499016     0.78200
Cd27       Cd  0.24799458  0.36590262  0.06672155     1.37500
O28         O  0.23622591  0.33447234  0.02392663    -0.56800
O29         O  0.18780152  0.37174727  0.06988289    -0.55600
C30         C  0.30748959  0.37124044  0.09850186     0.78100
O31         O  0.20963773  0.35589394  0.10730778    -0.58000
O32         O  0.26370164  0.31006162  0.05447081    -0.56400
O33         O  0.23049161  0.42199795  0.06541888    -0.56400
O34         O  0.30634659  0.37817728  0.07314086    -0.55600
O35         O  0.98237546  0.16173549  0.21241930    -0.56800
C36         C  0.00407230  0.06058542  0.21705446     0.75800
O37         O  0.47519898  0.12130857  0.13900422    -0.58000
C38         C  0.00324966  0.18277280  0.20469861     0.75800
C39         C  0.07125800  0.11507905  0.15493004     0.78200
Cd40       Cd  0.00674661  0.11799254  0.18271021     1.37500
O41         O  0.01531811  0.08698938  0.22566535    -0.56800
O42         O  0.06758614  0.11870103  0.18078233    -0.55600
C43         C  0.44676993  0.12102151  0.15086996     0.78100
O44         O  0.04478117  0.11145071  0.14177296    -0.58000
O45         O  0.99556732  0.06045970  0.19212409    -0.56400
O46         O  0.02638243  0.17327379  0.18864686    -0.56400
O47         O  0.44656214  0.11853811  0.17689793    -0.55600
O48         O  0.47206165  0.32863105  0.18603613    -0.56800
C49         C  0.49649509  0.44179319  0.21810572     0.75800
O50         O  0.03049406  0.38652693  0.14184898    -0.58000
C51         C  0.48995589  0.31904504  0.20526946     0.75800
C52         C  0.43188651  0.38705332  0.15488147     0.78200
Cd53       Cd  0.49311320  0.38390401  0.18410370     1.37500
O54         O  0.48224156  0.41651371  0.22676446    -0.56800
O55         O  0.43263672  0.38644718  0.18100000    -0.55600
C56         C  0.05602081  0.37665017  0.15388776     0.78100
O57         O  0.45977344  0.38830179  0.14216835    -0.58000
O58         O  0.50817864  0.44050710  0.19359888    -0.56400
O59         O  0.50790633  0.34003003  0.21644871    -0.56400
O60         O  0.05206508  0.37089930  0.17938627    -0.55600
C61         C  0.50127912  0.03108198  0.23454257     0.03300
C62         C  0.49939239  0.03145334  0.26397851     0.03300
C63         C  0.49854109  0.50187988  0.27816847    -0.17300
C64         C  0.49880635  0.47203345  0.26437175     0.03300
C65         C  0.49879766  0.47172861  0.23500145     0.03300
C66         C  0.00053820  0.50121392  0.22079008    -0.17300
H67         H  0.00123564  0.50088066  0.19837035     0.05300
H68         H  0.49787615  0.50209164  0.30058638     0.05300
O69         O  0.21557420  0.07939714  0.44637637    -0.56800
C70         C  0.24838970  0.18957106  0.46820167     0.75800
O71         O  0.27992339  0.13845547  0.39307096    -0.58000
C72         C  0.23906783  0.06717878  0.45933908     0.75800
C73         C  0.18266909  0.13252254  0.40417634     0.78200
Cd74       Cd  0.24332603  0.13097518  0.43515976     1.37500
O75         O  0.23564787  0.16404958  0.47786846    -0.56800
O76         O  0.18283454  0.13798568  0.42990931    -0.55600
C77         C  0.30522264  0.12491487  0.40262895     0.78100
O78         O  0.21083298  0.12789307  0.39262974    -0.58000
O79         O  0.25801010  0.18822341  0.44316329    -0.56400
O80         O  0.26336933  0.08555599  0.46358208    -0.56400
O81         O  0.30147726  0.11362915  0.42676772    -0.55600
O82         O  0.26455977  0.42271181  0.43472975    -0.56800
C83         C  0.25022826  0.30880040  0.46730170     0.75800
O84         O  0.21517526  0.36905195  0.39103353    -0.58000
C85         C  0.24661829  0.43073522  0.45538826     0.75800
C86         C  0.31214086  0.36321996  0.40342552     0.78200
Cd87       Cd  0.24904294  0.36616392  0.43316995     1.37500
O88         O  0.26224494  0.33522687  0.47512326    -0.56800
O89         O  0.30908009  0.37080199  0.42869222    -0.55600
C90         C  0.18756215  0.37043820  0.40417535     0.78100
O91         O  0.28559936  0.35559450  0.39166461    -0.58000
O92         O  0.23821883  0.30883845  0.44347445    -0.56400
O93         O  0.22998983  0.40854375  0.46706796    -0.56400
O94         O  0.18889297  0.36849509  0.43015242    -0.55600
O95         O  0.51885782  0.16338377  0.28374433    -0.56800
C96         C  0.49816345  0.06144212  0.28104481     0.75800
O97         O  0.02961029  0.12011601  0.35843243    -0.58000
C98         C  0.49885712  0.18443306  0.29301384     0.75800
C99         C  0.43383480  0.11696285  0.34467020     0.78200
Cd100      Cd  0.49732579  0.11953886  0.31511183     1.37500
O101        O  0.48701017  0.08783945  0.27247427    -0.56800
O102        O  0.43638524  0.12091550  0.31877738    -0.55600
C103        C  0.05789055  0.12255024  0.34654918     0.78100
O104        O  0.46080027  0.11313449  0.35701085    -0.58000
O105        O  0.50782000  0.06173522  0.30563768    -0.56400
O106        O  0.47772429  0.17504759  0.31094141    -0.56400
O107        O  0.05798164  0.12281564  0.32041331    -0.55600
O108        O  0.03021551  0.33258423  0.30651948    -0.56800
C109        C  0.00033174  0.44233958  0.28157456     0.75800
O110        O  0.46615201  0.38897784  0.35770594    -0.58000
C111        C  0.00770414  0.32097881  0.29200719     0.75800
C112        C  0.06376405  0.38571600  0.34654213     0.78200
Cd113      Cd  0.00318268  0.38468517  0.31578807     1.37500
O114        O  0.01252666  0.41624815  0.27264378    -0.56800
O115        O  0.06280878  0.39164293  0.32097067    -0.55600
C116        C  0.44062890  0.37761911  0.34657347     0.78100
O117        O  0.03590190  0.38154567  0.35883308    -0.58000
O118        O  0.99022507  0.44201932  0.30655962    -0.56400
O119        O  0.98434808  0.33982397  0.28637328    -0.56400
O120        O  0.44424166  0.36992023  0.32139135    -0.55600
C121        C  0.50126677  0.21875701  0.28530064     0.00900
C122        C  0.03256269  0.23343207  0.28429345    -0.11000
C123        C  0.03563034  0.26700097  0.28410942     0.03100
C124        C  0.00692996  0.28640815  0.28470500     0.00800
C125        C  0.47589774  0.27158805  0.28264657    -0.11000
C126        C  0.47283124  0.23812823  0.28319316     0.03000
H127        H  0.05460889  0.21874468  0.28539825     0.16000
H128        H  0.45367847  0.28613435  0.28247578     0.16000
C129        C  0.44008705  0.22439819  0.28217609     0.37600
C130        C  0.06843314  0.28079743  0.28375803     0.37500
N131        N  0.41370136  0.21372983  0.28121340    -0.42700
N132        N  0.09478133  0.29173155  0.28332699    -0.42700
C133        C  0.15554153  0.37452401  0.38996199     0.00900
C134        C  0.15589222  0.37614404  0.36098712    -0.11000
C135        C  0.12666415  0.38022576  0.34652466     0.03100
C136        C  0.09576273  0.38285269  0.36104108     0.00800
C137        C  0.09539256  0.38133444  0.39004644    -0.11000
C138        C  0.12469503  0.37746141  0.40453624     0.03000
H139        H  0.17919166  0.37406742  0.34940662     0.16000
H140        H  0.07204848  0.38329056  0.40157563     0.16000
C141        C  0.12211580  0.37704763  0.43436575     0.37600
C142        C  0.12939416  0.38069310  0.31671427     0.37500
N143        N  0.12018638  0.37686001  0.45826980    -0.42700
N144        N  0.13164026  0.38099574  0.29282661    -0.42700
C145        C  0.40817436  0.37327239  0.36178590     0.00900
C146        C  0.38211126  0.35773210  0.34836024    -0.11000
C147        C  0.35093729  0.35332318  0.36147996     0.03100
C148        C  0.34510783  0.36471995  0.38872366     0.00800
C149        C  0.37134956  0.37961415  0.40228851    -0.11000
C150        C  0.40238851  0.38412955  0.38919466     0.03000
H151        H  0.38600338  0.34892500  0.32746311     0.16000
H152        H  0.36748036  0.38860070  0.42314010     0.16000
C153        C  0.42727774  0.40093724  0.40437366     0.37600
C154        C  0.32577353  0.33661667  0.34649169     0.37500
N155        N  0.44703772  0.41458222  0.41662325    -0.42700
N156        N  0.30573838  0.32309322  0.33444198    -0.42700
C157        C  0.15104385  0.13081710  0.38886024     0.00900
C158        C  0.12073144  0.13517673  0.40351511    -0.11000
C159        C  0.09024334  0.13244452  0.39046361     0.03100
C160        C  0.08939341  0.12515855  0.36191508     0.00800
C161        C  0.11968924  0.12105215  0.34724389    -0.11000
C162        C  0.15014310  0.12378602  0.36025903     0.03000
H163        H  0.12072099  0.14066625  0.42542257     0.16000
H164        H  0.11969559  0.11553783  0.32534123     0.16000
C165        C  0.17995384  0.11919327  0.34353377     0.37600
C166        C  0.06038287  0.13792069  0.40691257     0.37500
N167        N  0.20389769  0.11556456  0.33018184    -0.42700
N168        N  0.03648042  0.14236795  0.42012539    -0.42700
C169        C  0.40095370  0.11778196  0.35950575     0.00900
C170        C  0.37512877  0.13526270  0.34783559    -0.11000
C171        C  0.34403596  0.13815731  0.36137589     0.03100
C172        C  0.33767912  0.12247422  0.38692930     0.00800
C173        C  0.36350358  0.10460577  0.39838470    -0.11000
C174        C  0.39487664  0.10246346  0.38516193     0.03000
H175        H  0.37952733  0.14761369  0.32841554     0.16000
H176        H  0.35938055  0.09247086  0.41792670     0.16000
C177        C  0.42023463  0.08411957  0.39835446     0.37600
C178        C  0.31983543  0.15859536  0.34893407     0.37500
N179        N  0.44070755  0.06958966  0.40889155    -0.42700
N180        N  0.30063931  0.17526059  0.33902476    -0.42700
C181        C  0.24459175  0.46472168  0.46410860     0.00900
C182        C  0.21350189  0.47953317  0.46674536    -0.11000
C183        C  0.21083164  0.01315903  0.46754159     0.03100
C184        C  0.23975961  0.03240797  0.46619029     0.00800
C185        C  0.27074122  0.01723106  0.46676111    -0.11000
C186        C  0.27334158  0.48376771  0.46538185     0.03000
H187        H  0.19125764  0.46497620  0.46621573     0.16000
H188        H  0.29318723  0.03153123  0.46623859     0.16000
C189        C  0.30587737  0.46948193  0.46424102     0.37600
C190        C  0.17817657  0.02717497  0.46917030     0.37500
N191        N  0.33188720  0.45789566  0.46331654    -0.42700
N192        N  0.15195799  0.03828938  0.47073250    -0.42700
C193        C  0.49189476  0.28455936  0.21219223     0.00900
C194        C  0.02332729  0.27084443  0.21468104    -0.11000
C195        C  0.02742265  0.23745869  0.21436489     0.03100
C196        C  0.99964618  0.21717354  0.21190196     0.00800
C197        C  0.46791241  0.23086597  0.21216134    -0.11000
C198        C  0.46386223  0.26430349  0.21207277     0.03000
H199        H  0.04497937  0.28621334  0.21518174     0.16000
H200        H  0.44635612  0.21551826  0.21069389     0.16000
C201        C  0.43076550  0.27722264  0.21152835     0.37600
C202        C  0.06042868  0.22462791  0.21628928     0.37500
N203        N  0.40418483  0.28747943  0.21126631    -0.42700
N204        N  0.08685731  0.21433994  0.21803203    -0.42700
C205        C  0.15037126  0.36541159  0.10934081     0.00900
C206        C  0.14800584  0.36009705  0.13797855    -0.11000
C207        C  0.11774300  0.36296224  0.15276806     0.03100
C208        C  0.08868826  0.37204674  0.13902410     0.00800
C209        C  0.09089721  0.37659248  0.11026688    -0.11000
C210        C  0.12103978  0.37303881  0.09538671     0.03000
H211        H  0.17000896  0.35383458  0.14904289     0.16000
H212        H  0.06888615  0.38282647  0.09920329     0.16000
C213        C  0.12072913  0.37693408  0.06575054     0.37600
C214        C  0.11757693  0.35619150  0.18202504     0.37500
N215        N  0.12047477  0.37984956  0.04198522    -0.42700
N216        N  0.11742128  0.35052726  0.20542690    -0.42700
C217        C  0.39997165  0.38481596  0.14032615     0.00900
C218        C  0.37156589  0.37431302  0.15527642    -0.11000
C219        C  0.34127215  0.36963139  0.14240693     0.03100
C220        C  0.33877711  0.37549080  0.11376467     0.00800
C221        C  0.36711661  0.38646598  0.09895077    -0.11000
C222        C  0.39732789  0.39122615  0.11183159     0.03000
H223        H  0.37306382  0.36919378  0.17713647     0.16000
H224        H  0.36579402  0.39149621  0.07706838     0.16000
C225        C  0.42486629  0.40332085  0.09521611     0.37600
C226        C  0.31341342  0.35889617  0.15934957     0.37500
N227        N  0.44682703  0.41311980  0.08183201    -0.42700
N228        N  0.29124076  0.35036333  0.17315000    -0.42700
C229        C  0.16628512  0.12275521  0.11139018     0.00900
C230        C  0.16494217  0.12088928  0.14035003    -0.11000
C231        C  0.13461008  0.11743232  0.15501742     0.03100
C232        C  0.10452804  0.11620302  0.14064049     0.00800
C233        C  0.10608703  0.11775466  0.11165215    -0.13800
C234        C  0.13633243  0.12100950  0.09704641     0.03000
H235        H  0.18772281  0.12180398  0.15160185     0.16000
H236        H  0.08344524  0.11710402  0.10021096     0.16000
C237        C  0.13559217  0.12382419  0.06732792     0.37600
C238        C  0.13544848  0.11486609  0.18473414     0.37500
N239        N  0.13524149  0.12613576  0.04351888    -0.42700
N240        N  0.13628417  0.11273279  0.20853753    -0.42700
C241        C  0.41514050  0.12384259  0.13575356     0.00900
C242        C  0.38528174  0.12691218  0.15130197    -0.11000
C243        C  0.35471554  0.13002998  0.13857793     0.03100
C244        C  0.35325733  0.13005784  0.10940624     0.00800
C245        C  0.38310381  0.12695216  0.09383681    -0.11000
C246        C  0.41370805  0.12394277  0.10659292     0.03000
H247        H  0.38568900  0.12701555  0.17365506     0.16000
H248        H  0.38265026  0.12676704  0.07148769     0.16000
C249        C  0.44301624  0.12073673  0.08902315     0.37600
C250        C  0.32544235  0.13299357  0.15625539     0.37500
N251        N  0.46643380  0.11818744  0.07484044    -0.42700
N252        N  0.30207779  0.13538146  0.17052651    -0.42700
C253        C  0.25587692  0.03334752  0.03683841     0.00900
C254        C  0.28506159  0.01506703  0.03640006    -0.11000
C255        C  0.28404117  0.48151059  0.03766309     0.03100
C256        C  0.25324169  0.46554726  0.03930082     0.00800
C257        C  0.22406814  0.48362861  0.03793584    -0.11000
C258        C  0.22506190  0.01723169  0.03652409     0.03000
H259        H  0.30884945  0.02713977  0.03665884     0.16000
H260        H  0.20030449  0.47147799  0.03912427     0.16000
C261        C  0.19399514  0.03432089  0.03682784     0.37600
C262        C  0.31489254  0.46449558  0.04014539     0.37500
N263        N  0.16888628  0.04764566  0.03691230    -0.42700
N264        N  0.33980088  0.45121486  0.04231898    -0.42700
C265        C  0.25070672  0.27907593  0.98443092     0.03300
C266        C  0.25223739  0.27932559  0.51374664     0.03300
C267        C  0.25438494  0.24978446  0.52772093    -0.17300
C268        C  0.25421678  0.22003556  0.51384960     0.03300
C269        C  0.25128316  0.21971190  0.98469411     0.03300
C270        C  0.25012921  0.24924630  0.97056775    -0.17300
H271        H  0.24847498  0.24898433  0.94823391     0.05300
H272        H  0.25599496  0.24991828  0.55005711     0.05300
O273        O  0.26996100  0.16464870  0.52169117    -0.56800
C274        C  0.25848322  0.06812877  0.54291150     0.75800
O275        O  0.29354502  0.13576016  0.60682675    -0.58000
C276        C  0.25707220  0.19036610  0.53081803     0.75800
C277        C  0.19884708  0.12617711  0.59649750     0.78200
Cd278      Cd  0.26020031  0.13261760  0.56473079     1.37500
O279        O  0.28164672  0.07858838  0.55738249    -0.56800
O280        O  0.20276419  0.11713309  0.57171946    -0.55600
C281        C  0.32145565  0.13229040  0.59449462     0.78100
O282        O  0.22408990  0.13826320  0.60755293    -0.58000
O283        O  0.23723052  0.08855038  0.53577118    -0.56400
O284        O  0.24695468  0.18964097  0.55575455    -0.56400
O285        O  0.32084746  0.13030517  0.56840824    -0.55600
O286        O  0.26888535  0.40972757  0.53553591    -0.56800
C287        C  0.25088840  0.30911407  0.53100172     0.75800
O288        O  0.28069861  0.36089393  0.60959682    -0.58000
C289        C  0.25065975  0.43117698  0.54662229     0.75800
C290        C  0.18364555  0.36402566  0.59499049     0.78200
Cd291      Cd  0.24799490  0.36590288  0.56672156     1.37500
O292        O  0.23622499  0.33447183  0.52392720    -0.56800
O293        O  0.18780184  0.37174717  0.56988341    -0.55600
C294        C  0.30748908  0.37124204  0.59850279     0.78100
O295        O  0.20963838  0.35589261  0.60730777    -0.58000
O296        O  0.26370589  0.31006311  0.55446925    -0.56400
O297        O  0.23049172  0.42199826  0.56541899    -0.56400
O298        O  0.30634566  0.37818095  0.57314224    -0.55600
O299        O  0.98237511  0.16173691  0.71241836    -0.56800
C300        C  0.00407207  0.06058625  0.71705445     0.75800
O301        O  0.47519900  0.12130769  0.63900414    -0.58000
C302        C  0.00325111  0.18277341  0.70469949     0.75800
C303        C  0.07125741  0.11508109  0.65493012     0.78200
Cd304      Cd  0.00674648  0.11799350  0.68271036     1.37500
O305        O  0.01531808  0.08699012  0.72566527    -0.56800
O306        O  0.06758597  0.11869870  0.68078288    -0.55600
C307        C  0.44676994  0.12102304  0.65086995     0.78100
O308        O  0.04478031  0.11145645  0.64177269    -0.58000
O309        O  0.99556704  0.06046059  0.69212409    -0.56400
O310        O  0.02638499  0.17327363  0.68864926    -0.56400
O311        O  0.44656215  0.11854203  0.67689810    -0.55600
O312        O  0.47206544  0.32863103  0.68603523    -0.56800
C313        C  0.49649444  0.44179403  0.71810557     0.75800
O314        O  0.03049455  0.38652511  0.64184885    -0.58000
C315        C  0.48995835  0.31904587  0.70526976     0.75800
C316        C  0.43188653  0.38705317  0.65488205     0.78200
Cd317      Cd  0.49311389  0.38390458  0.68410376     1.37500
O318        O  0.48224129  0.41651434  0.72676429    -0.56800
O319        O  0.43263713  0.38644608  0.68100053    -0.55600
C320        C  0.05602177  0.37665060  0.65388826     0.78100
O321        O  0.45977330  0.38830242  0.64216873    -0.58000
O322        O  0.50817800  0.44050809  0.69359871    -0.56400
O323        O  0.50790693  0.34003159  0.71645007    -0.56400
O324        O  0.05206654  0.37090246  0.67938727    -0.55600
C325        C  0.50127847  0.03108294  0.73454258     0.03300
C326        C  0.49939199  0.03145421  0.76397856     0.03300
C327        C  0.49854037  0.50188051  0.77816862    -0.17300
C328        C  0.49880548  0.47203416  0.76437175     0.03300
C329        C  0.49879679  0.47172944  0.73500145     0.03300
C330        C  0.00053760  0.50121474  0.72078981    -0.17300
H331        H  0.00123511  0.50088155  0.69837006     0.05300
H332        H  0.49787547  0.50209206  0.80058655     0.05300
O333        O  0.21557380  0.07939718  0.94637995    -0.56800
C334        C  0.24838979  0.18957041  0.96820190     0.75800
O335        O  0.27992425  0.13845285  0.89307087    -0.58000
C336        C  0.23906914  0.06717771  0.95933981     0.75800
C337        C  0.18266994  0.13252094  0.90417710     0.78200
Cd338      Cd  0.24332709  0.13097415  0.93516030     1.37500
O339        O  0.23565011  0.16404821  0.97786919    -0.56800
O340        O  0.18283577  0.13798552  0.92990983    -0.55600
C341        C  0.30522428  0.12491451  0.90262976     0.78100
O342        O  0.21083361  0.12789004  0.89263053    -0.58000
O343        O  0.25800850  0.18822328  0.94316307    -0.56400
O344        O  0.26337209  0.08555398  0.96358022    -0.56400
O345        O  0.30147949  0.11363086  0.92676930    -0.55600
O346        O  0.26456252  0.42270996  0.93473146    -0.56800
C347        C  0.25022756  0.30879972  0.96730210     0.75800
O348        O  0.21517635  0.36905181  0.89103324    -0.58000
C349        C  0.24661957  0.43073387  0.95538894     0.75800
C350        C  0.31214156  0.36321817  0.90342596     0.78200
Cd351      Cd  0.24904346  0.36616285  0.93317010     1.37500
O352        O  0.26224575  0.33522572  0.97512315    -0.56800
O353        O  0.30908055  0.37080133  0.92869237    -0.55600
C354        C  0.18756313  0.37043894  0.90417485     0.78100
O355        O  0.28560020  0.35559178  0.89166523    -0.58000
O356        O  0.23821718  0.30883804  0.94347522    -0.56400
O357        O  0.22998922  0.40854290  0.96706749    -0.56400
O358        O  0.18889361  0.36849588  0.93015193    -0.55600
O359        O  0.51886536  0.16338619  0.78374925    -0.56800
C360        C  0.49816373  0.06144293  0.78104507     0.75800
O361        O  0.02960995  0.12012085  0.85843396    -0.58000
C362        C  0.49885916  0.18443371  0.79301315     0.75800
C363        C  0.43383674  0.11696355  0.84467144     0.78200
Cd364      Cd  0.49732702  0.11953967  0.81511230     1.37500
O365        O  0.48701251  0.08784095  0.77247427    -0.56800
O366        O  0.43638656  0.12091185  0.81877811    -0.55600
C367        C  0.05789067  0.12255059  0.84655075     0.78100
O368        O  0.46080263  0.11313959  0.85701246    -0.58000
O369        O  0.50781883  0.06173533  0.80563841    -0.56400
O370        O  0.47772040  0.17504623  0.81093501    -0.56400
O371        O  0.05798226  0.12281160  0.82041484    -0.55600
O372        O  0.03021502  0.33258479  0.80652206    -0.56800
C373        C  0.00033089  0.44234020  0.78157425     0.75800
O374        O  0.46615192  0.38897933  0.85770578    -0.58000
C375        C  0.00770525  0.32097974  0.79200789     0.75800
C376        C  0.06376531  0.38571698  0.84654115     0.78200
Cd377      Cd  0.00318298  0.38468608  0.81578814     1.37500
O378        O  0.01252554  0.41624871  0.77264340    -0.56800
O379        O  0.06280984  0.39164229  0.82096940    -0.55600
C380        C  0.44062951  0.37761835  0.84657383     0.78100
O381        O  0.03590319  0.38154843  0.85883263    -0.58000
O382        O  0.99022494  0.44202010  0.80655949    -0.56400
O383        O  0.98435019  0.33982525  0.78637196    -0.56400
O384        O  0.44424283  0.36991797  0.82139210    -0.55600
C385        C  0.50126915  0.21875802  0.78530072     0.00900
C386        C  0.03256448  0.23343316  0.78429550    -0.11000
C387        C  0.03563205  0.26700205  0.78411187     0.03100
C388        C  0.00693162  0.28640914  0.78470565     0.00800
C389        C  0.47590026  0.27158911  0.78264547    -0.11000
C390        C  0.47283380  0.23812928  0.78319165     0.03000
H391        H  0.05461060  0.21874592  0.78540157     0.16000
H392        H  0.45368104  0.28613540  0.78247341     0.16000
C393        C  0.44008972  0.22439942  0.78217230     0.37600
C394        C  0.06843477  0.28079865  0.78376304     0.37500
N395        N  0.41370409  0.21373131  0.78120775    -0.42700
N396        N  0.09478282  0.29173302  0.78333415    -0.42700
C397        C  0.15554270  0.37452533  0.88996125     0.00900
C398        C  0.15589310  0.37614079  0.86098617    -0.11000
C399        C  0.12666509  0.38022242  0.84652354     0.03100
C400        C  0.09576409  0.38285360  0.86103996     0.00800
C401        C  0.09539421  0.38134003  0.89004551    -0.11000
C402        C  0.12469668  0.37746752  0.90453544     0.03000
H403        H  0.17919217  0.37406057  0.84940570     0.16000
H404        H  0.07205069  0.38329982  0.90157460     0.16000
C405        C  0.12211792  0.37706015  0.93436502     0.37600
C406        C  0.12939469  0.38068524  0.81671306     0.37500
N407        N  0.12018877  0.37687783  0.95826913    -0.42700
N408        N  0.13164058  0.38098427  0.79282538    -0.42700
C409        C  0.40817514  0.37327090  0.86178642     0.00900
C410        C  0.38211196  0.35773090  0.84836058    -0.11000
C411        C  0.35093799  0.35332186  0.86148030     0.03100
C412        C  0.34510865  0.36471797  0.88872418     0.00800
C413        C  0.37135058  0.37961150  0.90228935    -0.11000
C414        C  0.40238950  0.38412718  0.88919545     0.03000
H415        H  0.38600391  0.34892446  0.82746327     0.16000
H416        H  0.36748162  0.38859728  0.92314105     0.16000
C417        C  0.42727890  0.40093413  0.90437480     0.37600
C418        C  0.32577394  0.33661621  0.84649168     0.37500
N419        N  0.44703907  0.41457852  0.91662469    -0.42700
N420        N  0.30573849  0.32309354  0.83444173    -0.42700
C421        C  0.15104450  0.13081576  0.88886125     0.00900
C422        C  0.12073248  0.13518015  0.90351559    -0.11000
C423        C  0.09024415  0.13244872  0.89046430     0.03100
C424        C  0.08939360  0.12515857  0.86191659     0.00800
C425        C  0.11968906  0.12104744  0.84724594    -0.11000
C426        C  0.15014311  0.12378058  0.86026083     0.03000
H427        H  0.12072252  0.14067299  0.92542242     0.16000
H428        H  0.11969500  0.11552987  0.82534387     0.16000
C429        C  0.17995335  0.11918252  0.84353614     0.37600
C430        C  0.06038418  0.13793007  0.90691255     0.37500
N431        N  0.20389679  0.11554950  0.83018460    -0.42700
N432        N  0.03648222  0.14238149  0.92012488    -0.42700
C433        C  0.40095574  0.11778250  0.85950701     0.00900
C434        C  0.37512993  0.13526082  0.84783570    -0.11000
C435        C  0.34403699  0.13815510  0.86137581     0.03100
C436        C  0.33768095  0.12247404  0.88693030     0.00800
C437        C  0.36350640  0.10460791  0.89838682    -0.11000
C438        C  0.39487954  0.10246597  0.88516415     0.03000
H439        H  0.37952787  0.14761025  0.82841481     0.16000
H440        H  0.35938402  0.09247443  0.91792970     0.16000
C441        C  0.42023855  0.08412436  0.89835761     0.37600
C442        C  0.31983551  0.15859080  0.84893260     0.37500
N443        N  0.44071224  0.06959624  0.90889540    -0.42700
N444        N  0.30063870  0.17525421  0.83902202    -0.42700
C445        C  0.24459330  0.46472040  0.96410919     0.00900
C446        C  0.21350346  0.47953172  0.96674715    -0.11000
C447        C  0.21083309  0.01315778  0.96754308     0.03100
C448        C  0.23976104  0.03240673  0.96619055     0.00800
C449        C  0.27074272  0.01722976  0.96675995    -0.11000
C450        C  0.27334311  0.48376666  0.96538134     0.03000
H451        H  0.19125917  0.46497457  0.96621836     0.16000
H452        H  0.29318876  0.03152984  0.96623659     0.16000
C453        C  0.30587909  0.46948122  0.96423909     0.37600
C454        C  0.17817796  0.02717357  0.96917336     0.37500
N455        N  0.33188903  0.45789529  0.96331339    -0.42700
N456        N  0.15195929  0.03828756  0.97073691    -0.42700
C457        C  0.49189731  0.28456039  0.71219301     0.00900
C458        C  0.02332991  0.27084494  0.71468225    -0.11000
C459        C  0.02742488  0.23745909  0.71436628     0.03100
C460        C  0.99964821  0.21717422  0.71190282     0.00800
C461        C  0.46791460  0.23086724  0.71216197    -0.11000
C462        C  0.46386473  0.26430473  0.71207332     0.03000
H463        H  0.04498200  0.28621369  0.71518320     0.16000
H464        H  0.44635825  0.21551975  0.71069427     0.16000
C465        C  0.43076813  0.27722419  0.71152862     0.37600
C466        C  0.06043074  0.22462789  0.71629125     0.37500
N467        N  0.40418768  0.28748138  0.71126627    -0.42700
N468        N  0.08685907  0.21433944  0.71803444    -0.42700
C469        C  0.15037192  0.36541025  0.60934131     0.00900
C470        C  0.14800700  0.36009792  0.63797939    -0.11000
C471        C  0.11774423  0.36296374  0.65276898     0.03100
C472        C  0.08868918  0.37204651  0.63902469     0.00800
C473        C  0.09089756  0.37658956  0.61026712    -0.11000
C474        C  0.12104009  0.37303529  0.59538696     0.03000
H475        H  0.17001037  0.35383701  0.64904390     0.16000
H476        H  0.06888638  0.38282184  0.59920337     0.16000
C477        C  0.12072884  0.37692740  0.56575050     0.37600
C478        C  0.11757861  0.35619543  0.68202633     0.37500
N479        N  0.12047391  0.37984029  0.54198496    -0.42700
N480        N  0.11742331  0.35053310  0.70542856    -0.42700
C481        C  0.39997143  0.38481638  0.64032694     0.00900
C482        C  0.37156558  0.37431374  0.65527727    -0.11000
C483        C  0.34127160  0.36963287  0.64240794     0.03100
C484        C  0.33877650  0.37549247  0.61376571     0.00800
C485        C  0.36711598  0.38646768  0.59895182    -0.11000
C486        C  0.39732739  0.39122731  0.61183252     0.03000
H487        H  0.37306359  0.36919431  0.67713735     0.16000
H488        H  0.36579331  0.39149823  0.57706951     0.16000
C489        C  0.42486563  0.40332217  0.59521697     0.37600
C490        C  0.31341253  0.35889889  0.65935079     0.37500
N491        N  0.44682616  0.41312132  0.58183273    -0.42700
N492        N  0.29123962  0.35036724  0.67315149    -0.42700
C493        C  0.16628389  0.12275833  0.61138971     0.00900
C494        C  0.16494148  0.12089082  0.64034950    -0.11000
C495        C  0.13460960  0.11743332  0.65501709     0.03100
C496        C  0.10452728  0.11620571  0.64064045     0.00800
C497        C  0.10608581  0.11775925  0.61165217    -0.13800
C498        C  0.13633101  0.12101386  0.59704622     0.03000
H499        H  0.18772227  0.12180421  0.65160096     0.16000
H500        H  0.08344378  0.11710962  0.60021118     0.16000
C501        C  0.13559042  0.12382864  0.56732774     0.37600
C502        C  0.13544871  0.11486423  0.68473362     0.37500
N503        N  0.13523921  0.12613996  0.54351873    -0.42700
N504        N  0.13628521  0.11272837  0.70853679    -0.42700
C505        C  0.41514048  0.12384415  0.63575349     0.00900
C506        C  0.38528189  0.12691515  0.65130196    -0.11000
C507        C  0.35471564  0.13003316  0.63857799     0.03100
C508        C  0.35325714  0.13005958  0.60940632     0.00800
C509        C  0.38310342  0.12695251  0.59383681    -0.11000
C510        C  0.41370774  0.12394311  0.60659287     0.03000
H511        H  0.38568931  0.12701954  0.67365500     0.16000
H512        H  0.38264967  0.12676634  0.57148785     0.16000
C513        C  0.44301561  0.12073601  0.58902290     0.37600
C514        C  0.32544276  0.13299864  0.65625555     0.37500
N515        N  0.46643273  0.11818585  0.57483979    -0.42700
N516        N  0.30207852  0.13538803  0.67052686    -0.42700
C517        C  0.25587761  0.03334755  0.53684016     0.00900
C518        C  0.28506232  0.01506716  0.53640325    -0.11000
C519        C  0.28404154  0.48151092  0.53766545     0.03100
C520        C  0.25324198  0.46554754  0.53930103     0.00800
C521        C  0.22406860  0.48362891  0.53793472    -0.11000
C522        C  0.22506274  0.01723174  0.53652390     0.03000
H523        H  0.30885000  0.02713990  0.53666361     0.16000
H524        H  0.20030485  0.47147823  0.53912174     0.16000
C525        C  0.19399610  0.03432104  0.53682618     0.37600
C526        C  0.31489258  0.46449585  0.54014946     0.37500
N527        N  0.16888737  0.04764599  0.53690950    -0.42700
N528        N  0.33980061  0.45121496  0.54232447    -0.42700
C529        C  0.25070775  0.77907681  0.48443020     0.03300
C530        C  0.25223598  0.77932512  0.01374692     0.03300
C531        C  0.25438373  0.74978387  0.02772103    -0.17300
C532        C  0.25421638  0.72003508  0.01384947     0.03300
C533        C  0.25128381  0.71971278  0.48469319     0.03300
C534        C  0.25012985  0.74924727  0.47056695    -0.17300
H535        H  0.24847516  0.74898542  0.44823315     0.05300
H536        H  0.25599352  0.74991743  0.05005721     0.05300
O537        O  0.26996327  0.66464906  0.02169126    -0.56800
C538        C  0.25848310  0.56812871  0.04290817     0.75800
O539        O  0.29354487  0.63575926  0.10682651    -0.58000
C540        C  0.25707231  0.69036559  0.03081776     0.75800
C541        C  0.19884853  0.62617333  0.09649774     0.78200
Cd542      Cd  0.26020105  0.63261650  0.06472995     1.37500
O543        O  0.28165084  0.57858934  0.05737402    -0.56800
O544        O  0.20276554  0.61713070  0.07171931    -0.55600
C545        C  0.32145554  0.63228815  0.09449472     0.78100
O546        O  0.22409147  0.63825897  0.10755341    -0.58000
O547        O  0.23722662  0.58854931  0.03577336    -0.56400
O548        O  0.24695306  0.68963953  0.05575378    -0.56400
O549        O  0.32084765  0.63030188  0.06840842    -0.55600
O550        O  0.26888494  0.90972755  0.03553629    -0.56800
C551        C  0.25088688  0.80911362  0.03100210     0.75800
O552        O  0.28069869  0.86089455  0.10959667    -0.58000
C553        C  0.25065952  0.93117690  0.04662299     0.75800
C554        C  0.18364526  0.86402653  0.09499031     0.78200
Cd555      Cd  0.24799466  0.86590261  0.06672166     1.37500
O556        O  0.23622604  0.83447243  0.02392658    -0.56800
O557        O  0.18780188  0.87174814  0.06988329    -0.55600
C558        C  0.30748966  0.87124058  0.09850200     0.78100
O559        O  0.20963783  0.85589267  0.10730763    -0.58000
O560        O  0.26370203  0.81006173  0.05447060    -0.56400
O561        O  0.23049187  0.92199808  0.06541994    -0.56400
O562        O  0.30634648  0.87817773  0.07314107    -0.55600
O563        O  0.98237379  0.66173544  0.21241824    -0.56800
C564        C  0.00407210  0.56058553  0.21705464     0.75800
O565        O  0.47519840  0.62130700  0.13900446    -0.58000
C566        C  0.00324914  0.68277246  0.20469926     0.75800
C567        C  0.07125796  0.61507821  0.15492978     0.78200
Cd568      Cd  0.00674662  0.61799242  0.18271020     1.37500
O569        O  0.01531773  0.58698954  0.22566557    -0.56800
O570        O  0.06758613  0.61870068  0.18078202    -0.55600
C571        C  0.44676946  0.62102180  0.15087045     0.78100
O572        O  0.04478106  0.61144987  0.14177278    -0.58000
O573        O  0.99556742  0.56045969  0.19212419    -0.56400
O574        O  0.02638322  0.67327320  0.18864896    -0.56400
O575        O  0.44656190  0.61854040  0.17689856    -0.55600
O576        O  0.47206164  0.82863134  0.18603615    -0.56800
C577        C  0.49649568  0.94179318  0.21810565     0.75800
O578        O  0.03049427  0.88652637  0.14184934    -0.58000
C579        C  0.48995616  0.81904522  0.20526927     0.75800
C580        C  0.43188681  0.88705338  0.15488137     0.78200
Cd581      Cd  0.49311355  0.88390410  0.18410354     1.37500
O582        O  0.48224160  0.91651387  0.22676416    -0.56800
O583        O  0.43263713  0.88644687  0.18099987    -0.55600
C584        C  0.05602122  0.87665023  0.15388819     0.78100
O585        O  0.45977369  0.88830218  0.14216819    -0.58000
O586        O  0.50817976  0.94050696  0.19359900    -0.56400
O587        O  0.50790675  0.84003014  0.21644845    -0.56400
O588        O  0.05206568  0.87089990  0.17938680    -0.55600
C589        C  0.50127901  0.53108196  0.23454237     0.03300
C590        C  0.49939262  0.53145339  0.26397831     0.03300
C591        C  0.49854105  0.00187974  0.27816856    -0.17300
C592        C  0.49880657  0.97203337  0.26437172     0.03300
C593        C  0.49879815  0.97172859  0.23500146     0.03300
C594        C  0.00053807  0.00121374  0.22079003    -0.17300
H595        H  0.00123521  0.00088040  0.19837040     0.05300
H596        H  0.49787595  0.00209138  0.30058644     0.05300
O597        O  0.21557454  0.57939869  0.44637760    -0.56800
C598        C  0.24839019  0.68957152  0.46820073     0.75800
O599        O  0.27992398  0.63845465  0.39306890    -0.58000
C600        C  0.23906983  0.56717903  0.45933740     0.75800
C601        C  0.18267038  0.63252246  0.40417453     0.78200
Cd602      Cd  0.24332724  0.63097578  0.43515831     1.37500
O603        O  0.23564931  0.66404960  0.47786748    -0.56800
O604        O  0.18283600  0.63798604  0.42990743    -0.55600
C605        C  0.30522389  0.62491597  0.40262767     0.78100
O606        O  0.21083422  0.62789273  0.39262790    -0.58000
O607        O  0.25800988  0.68822439  0.44316214    -0.56400
O608        O  0.26337288  0.58555517  0.46357779    -0.56400
O609        O  0.30147917  0.61363213  0.42676715    -0.55600
O610        O  0.26456242  0.92271198  0.43473280    -0.56800
C611        C  0.25022826  0.80880081  0.46730163     0.75800
O612        O  0.21517590  0.86905329  0.39103380    -0.58000
C613        C  0.24661866  0.93073537  0.45538995     0.75800
C614        C  0.31214090  0.86322040  0.40342525     0.78200
Cd615      Cd  0.24904343  0.86616459  0.43317035     1.37500
O616        O  0.26224558  0.83522698  0.47512319    -0.56800
O617        O  0.30908052  0.87080189  0.42869208    -0.55600
C618        C  0.18756280  0.87044018  0.40417560     0.78100
O619        O  0.28559913  0.85559561  0.39166441    -0.58000
O620        O  0.23821834  0.80883925  0.44347456    -0.56400
O621        O  0.22998825  0.90854404  0.46706787    -0.56400
O622        O  0.18889358  0.86849732  0.43015267    -0.55600
O623        O  0.51885933  0.66338377  0.28374332    -0.56800
C624        C  0.49816416  0.56144225  0.28104441     0.75800
O625        O  0.02961043  0.62011661  0.35843285    -0.58000
C626        C  0.49885882  0.68443318  0.29301294     0.75800
C627        C  0.43383602  0.61696360  0.34466925     0.78200
Cd628      Cd  0.49732692  0.61953908  0.31511110     1.37500
O629        O  0.48701059  0.58783946  0.27247391    -0.56800
O630        O  0.43638648  0.62091566  0.31877636    -0.55600
C631        C  0.05789053  0.62254989  0.34654915     0.78100
O632        O  0.46080143  0.61313561  0.35701003    -0.58000
O633        O  0.50782144  0.56173554  0.30563707    -0.56400
O634        O  0.47772613  0.67504786  0.31094068    -0.56400
O635        O  0.05798106  0.62281433  0.32041330    -0.55600
O636        O  0.03021514  0.83258412  0.30652053    -0.56800
C637        C  0.00033191  0.94233964  0.28157484     0.75800
O638        O  0.46615211  0.88897703  0.35770548    -0.58000
C639        C  0.00770386  0.82097891  0.29200803     0.75800
C640        C  0.06376464  0.88571687  0.34654238     0.78200
Cd641      Cd  0.00318293  0.88468543  0.31578865     1.37500
O642        O  0.01252684  0.91624817  0.27264419    -0.56800
O643        O  0.06280916  0.89164422  0.32097099    -0.55600
C644        C  0.44062882  0.87761882  0.34657290     0.78100
O645        O  0.03590263  0.88154577  0.35883335    -0.58000
O646        O  0.99022524  0.94201953  0.30655990    -0.56400
O647        O  0.98434820  0.83982435  0.28637370    -0.56400
O648        O  0.44424140  0.86992042  0.32139067    -0.55600
C649        C  0.50126838  0.71875710  0.28529961     0.00900
C650        C  0.03256162  0.73343195  0.28429486    -0.11000
C651        C  0.03562954  0.76700083  0.28411068     0.03100
C652        C  0.00692931  0.78640820  0.28470604     0.00800
C653        C  0.47589894  0.77158794  0.28264564    -0.11000
C654        C  0.47283272  0.73812813  0.28319223     0.03000
H655        H  0.05460768  0.71874445  0.28539978     0.16000
H656        H  0.45367956  0.78613405  0.28247488     0.16000
C657        C  0.44008862  0.72439790  0.28217536     0.37600
C658        C  0.06843245  0.78079709  0.28375922     0.37500
N659        N  0.41370297  0.71372941  0.28121294    -0.42700
N660        N  0.09478068  0.79173114  0.28332805    -0.42700
C661        C  0.15554222  0.87452621  0.38996225     0.00900
C662        C  0.15589281  0.87614507  0.36098733    -0.11000
C663        C  0.12666471  0.88022631  0.34652483     0.03100
C664        C  0.09576340  0.88285406  0.36104127     0.00800
C665        C  0.09539331  0.88133718  0.39004671    -0.11000
C666        C  0.12469584  0.87746459  0.40453654     0.03000
H667        H  0.17919218  0.87406767  0.34940682     0.16000
H668        H  0.07204943  0.88329398  0.40157583     0.16000
C669        C  0.12211669  0.87705202  0.43436608     0.37600
C670        C  0.12939450  0.88069179  0.31671439     0.37500
N671        N  0.12018731  0.87686522  0.45827016    -0.42700
N672        N  0.13164043  0.88099277  0.29282672    -0.42700
C673        C  0.40817435  0.87327220  0.36178541     0.00900
C674        C  0.38211083  0.85773287  0.34835949    -0.11000
C675        C  0.35093681  0.85332432  0.36147922     0.03100
C676        C  0.34510779  0.86472021  0.38872321     0.00800
C677        C  0.37134995  0.87961339  0.40228835    -0.11000
C678        C  0.40238888  0.88412871  0.38919439     0.03000
H679        H  0.38600261  0.84892644  0.32746215     0.16000
H680        H  0.36748112  0.88859928  0.42314002     0.16000
C681        C  0.42727832  0.90093601  0.40437345     0.37600
C682        C  0.32577248  0.83661916  0.34649051     0.37500
N683        N  0.44703848  0.91458073  0.41662309    -0.42700
N684        N  0.30573691  0.82309692  0.33444038    -0.42700
C685        C  0.15104492  0.63081687  0.38885872     0.00900
C686        C  0.12073284  0.63517784  0.40351371    -0.11000
C687        C  0.09024445  0.63244560  0.39046276     0.03100
C688        C  0.08939381  0.62515820  0.36191452     0.00800
C689        C  0.11968931  0.62105037  0.34724314    -0.11000
C690        C  0.15014351  0.62378426  0.36025781     0.03000
H691        H  0.12072287  0.64066850  0.42542109     0.16000
H692        H  0.11969513  0.61553487  0.32534070     0.16000
C693        C  0.17995389  0.61918983  0.34353246     0.37600
C694        C  0.06038445  0.63792316  0.40691192     0.37500
N695        N  0.20389742  0.61555986  0.33018042    -0.42700
N696        N  0.03648242  0.64237149  0.42012503    -0.42700
C697        C  0.40095496  0.61778285  0.35950471     0.00900
C698        C  0.37512987  0.63526292  0.34783417    -0.11000
C699        C  0.34403704  0.63815759  0.36137434     0.03100
C700        C  0.33768039  0.62247524  0.38692811     0.00800
C701        C  0.36350501  0.60460738  0.39838392    -0.11000
C702        C  0.39487807  0.60246498  0.38516119     0.03000
H703        H  0.37952832  0.64761347  0.32841371     0.16000
H704        H  0.35938211  0.59247296  0.41792610     0.16000
C705        C  0.42023616  0.58412159  0.39835408     0.37600
C706        C  0.31983631  0.65859493  0.34893206     0.37500
N707        N  0.44070905  0.56959197  0.40889154    -0.42700
N708        N  0.30064003  0.67525960  0.33902226    -0.42700
C709        C  0.24459135  0.96472175  0.46411049     0.00900
C710        C  0.21350117  0.97953273  0.46674640    -0.11000
C711        C  0.21083300  0.51315956  0.46754054     0.03100
C712        C  0.23976128  0.53240805  0.46618829     0.00800
C713        C  0.27074268  0.51723057  0.46675820    -0.11000
C714        C  0.27334078  0.98376826  0.46538473     0.03000
H715        H  0.19125717  0.96497537  0.46621597     0.16000
H716        H  0.29318893  0.53153028  0.46623505     0.16000
C717        C  0.30587686  0.96948304  0.46424468     0.37600
C718        C  0.17817818  0.52717602  0.46917035     0.37500
N719        N  0.33188688  0.95789727  0.46332072    -0.42700
N720        N  0.15195989  0.53829092  0.47073350    -0.42700
C721        C  0.49189525  0.78455951  0.21219181     0.00900
C722        C  0.02332668  0.77084406  0.21468234    -0.11000
C723        C  0.02742197  0.73745831  0.21436637     0.03100
C724        C  0.99964556  0.71717319  0.21190274     0.00800
C725        C  0.46791301  0.73086606  0.21216136    -0.11000
C726        C  0.46386274  0.76430357  0.21207277     0.03000
H727        H  0.04497876  0.78621293  0.21518347     0.16000
H728        H  0.44635673  0.71551824  0.21069426     0.16000
C729        C  0.43076590  0.77722261  0.21152874     0.37600
C730        C  0.06042786  0.72462747  0.21629192     0.37500
N731        N  0.40418518  0.78747925  0.21126695    -0.42700
N732        N  0.08685629  0.71433941  0.21803573    -0.42700
C733        C  0.15037158  0.86541162  0.10934103     0.00900
C734        C  0.14800590  0.86009553  0.13797851    -0.11000
C735        C  0.11774312  0.86296069  0.15276810     0.03100
C736        C  0.08868866  0.87204681  0.13902444     0.00800
C737        C  0.09089781  0.87659406  0.11026741    -0.11000
C738        C  0.12104035  0.87304043  0.09538718     0.03000
H739        H  0.17000895  0.85383176  0.14904269     0.16000
H740        H  0.06888704  0.88282928  0.09920405     0.16000
C741        C  0.12072990  0.87693753  0.06575119     0.37600
C742        C  0.11757676  0.85618813  0.18202473     0.37500
N743        N  0.12047570  0.87985450  0.04198600    -0.42700
N744        N  0.11742098  0.85052252  0.20542638    -0.42700
C745        C  0.39997186  0.88481611  0.14032611     0.00900
C746        C  0.37156611  0.87431327  0.15527646    -0.11000
C747        C  0.34127233  0.86963158  0.14240700     0.03100
C748        C  0.33877722  0.87549099  0.11376475     0.00800
C749        C  0.36711669  0.88646610  0.09895079    -0.11000
C750        C  0.39732803  0.89122618  0.11183155     0.03000
H751        H  0.37306405  0.86919411  0.17713647     0.16000
H752        H  0.36579406  0.89149627  0.07706840     0.16000
C753        C  0.42486641  0.90332060  0.09521595     0.37600
C754        C  0.31341370  0.85889633  0.15934970     0.37500
N755        N  0.44682711  0.91311945  0.08183172    -0.42700
N756        N  0.29124111  0.85036344  0.17315024    -0.42700
C757        C  0.16628520  0.62275391  0.11138989     0.00900
C758        C  0.16494226  0.62088742  0.14034974    -0.11000
C759        C  0.13461012  0.61743035  0.15501710     0.03100
C760        C  0.10452802  0.61620176  0.14064020     0.00800
C761        C  0.10608705  0.61775382  0.11165189    -0.13800
C762        C  0.13633245  0.62100855  0.09704616     0.03000
H763        H  0.18772286  0.62180172  0.15160152     0.16000
H764        H  0.08344513  0.61710354  0.10021069     0.16000
C765        C  0.13559223  0.62382320  0.06732769     0.37600
C766        C  0.13544850  0.61486308  0.18473378     0.37500
N767        N  0.13524167  0.62613468  0.04351864    -0.42700
N768        N  0.13628411  0.61272886  0.20853709    -0.42700
C769        C  0.41513997  0.62384257  0.13575410     0.00900
C770        C  0.38528123  0.62691290  0.15130248    -0.11000
C771        C  0.35471501  0.63003017  0.13857831     0.03100
C772        C  0.35325682  0.63005721  0.10940664     0.00800
C773        C  0.38310325  0.62695067  0.09383728    -0.11000
C774        C  0.41370743  0.62394138  0.10659350     0.03000
H775        H  0.38568851  0.62701706  0.17365551     0.16000
H776        H  0.38264972  0.62676466  0.07148830     0.16000
C777        C  0.44301542  0.62073375  0.08902375     0.37600
C778        C  0.32544174  0.63299370  0.15625566     0.37500
N779        N  0.46643279  0.61818303  0.07484103    -0.42700
N780        N  0.30207715  0.63538139  0.17052674    -0.42700
C781        C  0.25587697  0.53334734  0.03683717     0.00900
C782        C  0.28506175  0.51506690  0.03639823    -0.11000
C783        C  0.28404098  0.98151075  0.03766468     0.03100
C784        C  0.25324140  0.96554746  0.03930172     0.00800
C785        C  0.22406797  0.98362892  0.03793641    -0.11000
C786        C  0.22506201  0.51723140  0.03652344     0.03000
H787        H  0.30884949  0.52713960  0.03665649     0.16000
H788        H  0.20030407  0.97147824  0.03912447     0.16000
C789        C  0.19399512  0.53432038  0.03682786     0.37600
C790        C  0.31489223  0.96449564  0.04014727     0.37500
N791        N  0.16888617  0.54764504  0.03691291    -0.42700
N792        N  0.33980049  0.95121479  0.04232104    -0.42700
C793        C  0.25070689  0.77907614  0.98443076     0.03300
C794        C  0.25223751  0.77932574  0.51374632     0.03300
C795        C  0.25438513  0.74978452  0.52772046    -0.17300
C796        C  0.25421701  0.72003571  0.51384897     0.03300
C797        C  0.25128348  0.71971209  0.98469367     0.03300
C798        C  0.25012937  0.74924659  0.97056744    -0.17300
H799        H  0.24847505  0.74898478  0.94823364     0.05300
H800        H  0.25599521  0.74991821  0.55005663     0.05300
O801        O  0.26996167  0.66464895  0.52169052    -0.56800
C802        C  0.25848309  0.56812891  0.54291005     0.75800
O803        O  0.29354469  0.63576096  0.60682673    -0.58000
C804        C  0.25707253  0.69036620  0.53081733     0.75800
C805        C  0.19884740  0.62617614  0.59649720     0.78200
Cd806      Cd  0.26020048  0.63261750  0.56473018     1.37500
O807        O  0.28164826  0.57858899  0.55737898    -0.56800
O808        O  0.20276422  0.61713347  0.57171878    -0.55600
C809        C  0.32145529  0.63228959  0.59449490     0.78100
O810        O  0.22409053  0.63826122  0.60755296    -0.58000
O811        O  0.23722879  0.58855006  0.53577201    -0.56400
O812        O  0.24695479  0.68964088  0.55575378    -0.56400
O813        O  0.32084723  0.63030311  0.56840858    -0.55600
O814        O  0.26888479  0.90972753  0.53553610    -0.56800
C815        C  0.25088864  0.80911414  0.53100150     0.75800
O816        O  0.28069913  0.86089264  0.60959684    -0.58000
C817        C  0.25065980  0.93117692  0.54662325     0.75800
C818        C  0.18364589  0.86402565  0.59499070     0.78200
Cd819      Cd  0.24799516  0.86590259  0.56672181     1.37500
O820        O  0.23622513  0.83447193  0.52392718    -0.56800
O821        O  0.18780247  0.87174845  0.56988396    -0.55600
C822        C  0.30748926  0.87124191  0.59850308     0.78100
O823        O  0.20963843  0.85589106  0.60730770    -0.58000
O824        O  0.26370634  0.81006304  0.55446895    -0.56400
O825        O  0.23049248  0.92199813  0.56542046    -0.56400
O826        O  0.30634559  0.87818181  0.57314274    -0.55600
O827        O  0.98237414  0.66173691  0.71241772    -0.56800
C828        C  0.00407206  0.56058630  0.71705441     0.75800
O829        O  0.47519853  0.62130637  0.63900449    -0.58000
C830        C  0.00325074  0.68277329  0.70469980     0.75800
C831        C  0.07125767  0.61508042  0.65492986     0.78200
Cd832      Cd  0.00674665  0.61799344  0.68271019     1.37500
O833        O  0.01531856  0.58699003  0.72566508    -0.56800
O834        O  0.06758622  0.61869933  0.68078246    -0.55600
C835        C  0.44676955  0.62102268  0.65087047     0.78100
O836        O  0.04478057  0.61145492  0.64177257    -0.58000
O837        O  0.99556657  0.56046073  0.69212417    -0.56400
O838        O  0.02638534  0.67327338  0.68865036    -0.56400
O839        O  0.44656194  0.61854288  0.67689871    -0.55600
O840        O  0.47206612  0.82863073  0.68603464    -0.56800
C841        C  0.49649469  0.94179413  0.71810541     0.75800
O842        O  0.03049479  0.88652524  0.64184895    -0.58000
C843        C  0.48995857  0.81904578  0.70526955     0.75800
C844        C  0.43188657  0.88705336  0.65488229     0.78200
Cd845      Cd  0.49311395  0.88390450  0.68410374     1.37500
O846        O  0.48224092  0.91651467  0.72676396    -0.56800
O847        O  0.43263726  0.88644533  0.68100074    -0.55600
C848        C  0.05602210  0.87665108  0.65388842     0.78100
O849        O  0.45977328  0.88830333  0.64216891    -0.58000
O850        O  0.50817891  0.94050793  0.69359877    -0.56400
O851        O  0.50790656  0.84003167  0.71645028    -0.56400
O852        O  0.05206685  0.87090307  0.67938745    -0.55600
C853        C  0.50127853  0.53108284  0.73454269     0.03300
C854        C  0.49939223  0.53145418  0.76397870     0.03300
C855        C  0.49854024  0.00188051  0.77816845    -0.17300
C856        C  0.49880556  0.97203420  0.76437155     0.03300
C857        C  0.49879696  0.97172953  0.73500128     0.03300
C858        C  0.00053742  0.00121466  0.72078994    -0.17300
H859        H  0.00123470  0.00088142  0.69837032     0.05300
H860        H  0.49787520  0.00209201  0.80058637     0.05300
O861        O  0.21557400  0.57939820  0.94638101    -0.56800
C862        C  0.24839020  0.68957070  0.96820128     0.75800
O863        O  0.27992472  0.63845280  0.89306983    -0.58000
C864        C  0.23907058  0.56717790  0.95933878     0.75800
C865        C  0.18267064  0.63252058  0.90417591     0.78200
Cd866      Cd  0.24332777  0.63097453  0.93515942     1.37500
O867        O  0.23565106  0.66404824  0.97786855    -0.56800
O868        O  0.18283654  0.63798591  0.92990851    -0.55600
C869        C  0.30522504  0.62491532  0.90262909     0.78100
O870        O  0.21083429  0.62788921  0.89262942    -0.58000
O871        O  0.25800845  0.68822390  0.94316232    -0.56400
O872        O  0.26337455  0.58555351  0.96357736    -0.56400
O873        O  0.30148051  0.61363241  0.92676891    -0.55600
O874        O  0.26456407  0.92271021  0.93473339    -0.56800
C875        C  0.25022774  0.80880004  0.96730211     0.75800
O876        O  0.21517675  0.86905243  0.89103353    -0.58000
C877        C  0.24661952  0.93073407  0.95538994     0.75800
C878        C  0.31214167  0.86321867  0.90342580     0.78200
Cd879      Cd  0.24904382  0.86616341  0.93317044     1.37500
O880        O  0.26224643  0.83522583  0.97512315    -0.56800
O881        O  0.30908096  0.87080122  0.92869237    -0.55600
C882        C  0.18756356  0.87043994  0.90417519     0.78100
O883        O  0.28560008  0.85559310  0.89166504    -0.58000
O884        O  0.23821690  0.80883868  0.94347541    -0.56400
O885        O  0.22998794  0.90854317  0.96706731    -0.56400
O886        O  0.18889410  0.86849720  0.93015227    -0.55600
O887        O  0.51886701  0.66338630  0.78374945    -0.56800
C888        C  0.49816417  0.56144297  0.78104514     0.75800
O889        O  0.02960989  0.62012122  0.85843412    -0.58000
C890        C  0.49886028  0.68443371  0.79301269     0.75800
C891        C  0.43383759  0.61696435  0.84467112     0.78200
Cd892      Cd  0.49732767  0.61953987  0.81511210     1.37500
O893        O  0.48701265  0.58784089  0.77247440    -0.56800
O894        O  0.43638743  0.62091293  0.81877781    -0.55600
C895        C  0.05789056  0.62254968  0.84655064     0.78100
O896        O  0.46080340  0.61313993  0.85701213    -0.58000
O897        O  0.50781976  0.56173555  0.80563833    -0.56400
O898        O  0.47772085  0.67504617  0.81093398    -0.56400
O899        O  0.05798183  0.62280962  0.82041473    -0.55600
O900        O  0.03021423  0.83258444  0.80652336    -0.56800
C901        C  0.00033098  0.94234031  0.78157465     0.75800
O902        O  0.46615217  0.88897854  0.85770549    -0.58000
C903        C  0.00770466  0.82097968  0.79200879     0.75800
C904        C  0.06376561  0.88571731  0.84654156     0.78200
Cd905      Cd  0.00318298  0.88468624  0.81578876     1.37500
O906        O  0.01252574  0.91624879  0.77264394    -0.56800
O907        O  0.06281006  0.89164242  0.82096979    -0.55600
C908        C  0.44062953  0.87761826  0.84657338     0.78100
O909        O  0.03590352  0.88154880  0.85883312    -0.58000
O910        O  0.99022487  0.94202028  0.80655986    -0.56400
O911        O  0.98435007  0.83982551  0.78637237    -0.56400
O912        O  0.44424263  0.86991851  0.82139149    -0.55600
C913        C  0.50127024  0.71875801  0.78530015     0.00900
C914        C  0.03256352  0.73343301  0.78429631    -0.11000
C915        C  0.03563118  0.76700188  0.78411279     0.03100
C916        C  0.00693084  0.78640905  0.78470656     0.00800
C917        C  0.47590112  0.77158897  0.78264467    -0.11000
C918        C  0.47283485  0.73812913  0.78319086     0.03000
H919        H  0.05460962  0.71874571  0.78540234     0.16000
H920        H  0.45368187  0.78613507  0.78247247     0.16000
C921        C  0.44009084  0.72439914  0.78217145     0.37600
C922        C  0.06843396  0.78079843  0.78376397     0.37500
N923        N  0.41370527  0.71373093  0.78120692    -0.42700
N924        N  0.09478196  0.79173286  0.78333514    -0.42700
C925        C  0.15554312  0.87452631  0.88996164     0.00900
C926        C  0.15589344  0.87614157  0.86098659    -0.11000
C927        C  0.12666541  0.88022291  0.84652396     0.03100
C928        C  0.09576440  0.88285413  0.86104040     0.00800
C929        C  0.09539463  0.88134072  0.89004593    -0.11000
C930        C  0.12469707  0.87746845  0.90453591     0.03000
H931        H  0.17919253  0.87406139  0.84940608     0.16000
H932        H  0.07205087  0.88330042  0.90157515     0.16000
C933        C  0.12211835  0.87706105  0.93436546     0.37600
C934        C  0.12939497  0.88068531  0.81671348     0.37500
N935        N  0.12018919  0.87687867  0.95826963    -0.42700
N936        N  0.13164095  0.88098395  0.79282579    -0.42700
C937        C  0.40817517  0.87327092  0.86178603     0.00900
C938        C  0.38211179  0.85773133  0.84836012    -0.11000
C939        C  0.35093782  0.85332245  0.86147992     0.03100
C940        C  0.34510870  0.86471826  0.88872392     0.00800
C941        C  0.37135084  0.87961133  0.90228913    -0.11000
C942        C  0.40238970  0.88412693  0.88919515     0.03000
H943        H  0.38600355  0.84892512  0.82746279     0.16000
H944        H  0.36748200  0.88859699  0.92314093     0.16000
C945        C  0.42727921  0.90093379  0.90437446     0.37600
C946        C  0.32577354  0.83661738  0.84649116     0.37500
N947        N  0.44703946  0.91457814  0.91662425    -0.42700
N948        N  0.30573786  0.82309522  0.83444103    -0.42700
C949        C  0.15104508  0.63081510  0.88886021     0.00900
C950        C  0.12073323  0.63518035  0.90351463    -0.11000
C951        C  0.09024471  0.63244880  0.89046366     0.03100
C952        C  0.08939377  0.62515758  0.86191616     0.00800
C953        C  0.11968906  0.62104540  0.84724543    -0.11000
C954        C  0.15014334  0.62377873  0.86026002     0.03000
H955        H  0.12072351  0.64067401  0.92542129     0.16000
H956        H  0.11969469  0.61552691  0.82534354     0.16000
C957        C  0.17995340  0.61917959  0.84353534     0.37600
C958        C  0.06038503  0.63793112  0.90691202     0.37500
N959        N  0.20389674  0.61554576  0.83018380    -0.42700
N960        N  0.03648330  0.64238332  0.92012453    -0.42700
C961        C  0.40095662  0.61778345  0.85950662     0.00900
C962        C  0.37513100  0.63526210  0.84783548    -0.11000
C963        C  0.34403803  0.63815638  0.86137544     0.03100
C964        C  0.33768176  0.62247491  0.88692972     0.00800
C965        C  0.36350700  0.60460841  0.89838613    -0.11000
C966        C  0.39488022  0.60246652  0.88516358     0.03000
H967        H  0.37952916  0.64761192  0.82841453     0.16000
H968        H  0.35938443  0.59247463  0.91792876     0.16000
C969        C  0.42023907  0.58412463  0.89835692     0.37600
C970        C  0.31983673  0.65859239  0.84893243     0.37500
N971        N  0.44071275  0.56959630  0.90889462    -0.42700
N972        N  0.30064004  0.67525607  0.83902198    -0.42700
C973        C  0.24459269  0.96472049  0.96411039     0.00900
C974        C  0.21350261  0.97953146  0.96674776    -0.11000
C975        C  0.21083432  0.51315808  0.96754250     0.03100
C976        C  0.23976243  0.53240679  0.96618925     0.00800
C977        C  0.27074401  0.51722947  0.96675788    -0.11000
C978        C  0.27334224  0.98376699  0.96538337     0.03000
H979        H  0.19125857  0.96497411  0.96621839     0.16000
H980        H  0.29319020  0.53152930  0.96623397     0.16000
C981        C  0.30587835  0.96948193  0.96424177     0.37600
C982        C  0.17817939  0.52717415  0.96917356     0.37500
N983        N  0.33188849  0.95789631  0.96331650    -0.42700
N984        N  0.15196085  0.53828843  0.97073774    -0.42700
C985        C  0.49189772  0.78456035  0.71219276     0.00900
C986        C  0.02332943  0.77084483  0.71468283    -0.11000
C987        C  0.02742440  0.73745898  0.71436696     0.03100
C988        C  0.99964775  0.71717411  0.71190323     0.00800
C989        C  0.46791518  0.73086713  0.71216191    -0.11000
C990        C  0.46386520  0.76430459  0.71207317     0.03000
H991        H  0.04498155  0.78621358  0.71518400     0.16000
H992        H  0.44635894  0.71551960  0.71069440     0.16000
C993        C  0.43076849  0.77722392  0.71152843     0.37600
C994        C  0.06043016  0.72462783  0.71629245     0.37500
N995        N  0.40418802  0.78748096  0.71126606    -0.42700
N996        N  0.08685851  0.71433951  0.71803610    -0.42700
C997        C  0.15037229  0.86541053  0.60934150     0.00900
C998        C  0.14800717  0.86009752  0.63797944    -0.11000
C999        C  0.11774446  0.86296349  0.65276905     0.03100
C1000       C  0.08868956  0.87204710  0.63902486     0.00800
C1001       C  0.09089817  0.87659089  0.61026739    -0.11000
C1002       C  0.12104065  0.87303653  0.59538720     0.03000
H1003       H  0.17001053  0.85383587  0.64904391     0.16000
H1004       H  0.06888703  0.88282384  0.59920365     0.16000
C1005       C  0.12072971  0.87692955  0.56575082     0.37600
C1006       C  0.11757865  0.85619439  0.68202626     0.37500
N1007       N  0.12047527  0.87984325  0.54198530    -0.42700
N1008       N  0.11742322  0.85053151  0.70542841    -0.42700
C1009       C  0.39997146  0.88481671  0.64032722     0.00900
C1010       C  0.37156559  0.87431417  0.65527764    -0.11000
C1011       C  0.34127161  0.86963325  0.64240829     0.03100
C1012       C  0.33877661  0.87549252  0.61376603     0.00800
C1013       C  0.36711609  0.88646762  0.59895206    -0.11000
C1014       C  0.39732747  0.89122745  0.61183278     0.03000
H1015       H  0.37306353  0.86919496  0.67713764     0.16000
H1016       H  0.36579347  0.89149786  0.57706980     0.16000
C1017       C  0.42486566  0.90332233  0.59521718     0.37600
C1018       C  0.31341239  0.85889975  0.65935122     0.37500
N1019       N  0.44682613  0.91312165  0.58183293    -0.42700
N1020       N  0.29123930  0.85036855  0.67315193    -0.42700
C1021       C  0.16628420  0.62275710  0.61138942     0.00900
C1022       C  0.16494175  0.62088902  0.64034917    -0.11000
C1023       C  0.13460987  0.61743153  0.65501676     0.03100
C1024       C  0.10452750  0.61620463  0.64064011     0.00800
C1025       C  0.10608606  0.61775846  0.61165189    -0.13800
C1026       C  0.13633123  0.62101300  0.59704592     0.03000
H1027       H  0.18772264  0.62180199  0.65160068     0.16000
H1028       H  0.08344385  0.61710922  0.60021083     0.16000
C1029       C  0.13559062  0.62382801  0.56732747     0.37600
C1030       C  0.13544888  0.61486152  0.68473322     0.37500
N1031       N  0.13523938  0.62613940  0.54351847    -0.42700
N1032       N  0.13628519  0.61272489  0.70853635    -0.42700
C1033       C  0.41514000  0.62384343  0.63575404     0.00900
C1034       C  0.38528141  0.62691481  0.65130247    -0.11000
C1035       C  0.35471512  0.63003241  0.63857843     0.03100
C1036       C  0.35325666  0.63005846  0.60940674     0.00800
C1037       C  0.38310292  0.62695074  0.59383734    -0.11000
C1038       C  0.41370720  0.62394134  0.60659342     0.03000
H1039       H  0.38568887  0.62701965  0.67365548     0.16000
H1040       H  0.38264917  0.62676398  0.57148823     0.16000
C1041       C  0.44301492  0.62073276  0.58902355     0.37600
C1042       C  0.32544215  0.63299760  0.65625594     0.37500
N1043       N  0.46643199  0.61818122  0.57484055    -0.42700
N1044       N  0.30207784  0.63538671  0.67052719    -0.42700
C1045       C  0.25587743  0.53334763  0.53683867     0.00900
C1046       C  0.28506219  0.51506725  0.53640125    -0.11000
C1047       C  0.28404163  0.98151085  0.53766712     0.03100
C1048       C  0.25324204  0.96554751  0.53930229     0.00800
C1049       C  0.22406869  0.98362892  0.53793574    -0.11000
C1050       C  0.22506256  0.51723175  0.53652293     0.03000
H1051       H  0.30884983  0.52713998  0.53666122     0.16000
H1052       H  0.20030488  0.97147821  0.53912240     0.16000
C1053       C  0.19399583  0.53432091  0.53682614     0.37600
C1054       C  0.31489266  0.96449570  0.54015094     0.37500
N1055       N  0.16888703  0.54764585  0.53691032    -0.42700
N1056       N  0.33980075  0.95121483  0.54232573    -0.42700
C1057       C  0.75070751  0.27907674  0.48443030     0.03300
C1058       C  0.75223621  0.27932521  0.01374702     0.03300
C1059       C  0.75438396  0.24978401  0.02772116    -0.17300
C1060       C  0.75421661  0.22003523  0.01384964     0.03300
C1061       C  0.75128354  0.21971267  0.48469317     0.03300
C1062       C  0.75012959  0.24924721  0.47056699    -0.17300
H1063       H  0.74847495  0.24898540  0.44823319     0.05300
H1064       H  0.75599374  0.24991762  0.05005736     0.05300
O1065       O  0.76996327  0.16464919  0.02169144    -0.56800
C1066       C  0.75848312  0.06812896  0.04290855     0.75800
O1067       O  0.79354492  0.13575959  0.10682670    -0.58000
C1068       C  0.75707253  0.19036581  0.03081796     0.75800
C1069       C  0.69884843  0.12617382  0.09649767     0.78200
Cd1070     Cd  0.76020107  0.13261681  0.06473015     1.37500
O1071       O  0.78165041  0.07858950  0.05737493    -0.56800
O1072       O  0.70276546  0.11713133  0.07171921    -0.55600
C1073       C  0.82145559  0.13228833  0.09449495     0.78100
O1074       O  0.72409135  0.13825933  0.10755344    -0.58000
O1075       O  0.73722700  0.08854965  0.03577319    -0.56400
O1076       O  0.74695350  0.18963989  0.05575405    -0.56400
O1077       O  0.82084772  0.13030199  0.06840864    -0.55600
O1078       O  0.76888435  0.40972776  0.03553620    -0.56800
C1079       C  0.75088704  0.30911371  0.03100220     0.75800
O1080       O  0.78069880  0.36089409  0.10959638    -0.58000
C1081       C  0.75065915  0.43117708  0.04662319     0.75800
C1082       C  0.68364515  0.36402658  0.09499020     0.78200
Cd1083     Cd  0.74799456  0.36590267  0.06672164     1.37500
O1084       O  0.73622629  0.33447252  0.02392658    -0.56800
O1085       O  0.68780167  0.37174706  0.06988292    -0.55600
C1086       C  0.80748964  0.37124056  0.09850180     0.78100
O1087       O  0.70963785  0.35589373  0.10730783    -0.58000
O1088       O  0.76370201  0.31006180  0.05447078    -0.56400
O1089       O  0.73049173  0.42199818  0.06542028    -0.56400
O1090       O  0.80634631  0.37817829  0.07314100    -0.55600
O1091       O  0.48237359  0.16173549  0.21241784    -0.56800
C1092       C  0.50407232  0.06058547  0.21705454     0.75800
O1093       O  0.97519844  0.12130682  0.13900467    -0.58000
C1094       C  0.50324903  0.18277247  0.20469890     0.75800
C1095       C  0.57125792  0.11507856  0.15492958     0.78200
Cd1096     Cd  0.50674662  0.11799239  0.18271000     1.37500
O1097       O  0.51531768  0.08698958  0.22566549    -0.56800
O1098       O  0.56758607  0.11870152  0.18078177    -0.55600
C1099       C  0.94676949  0.12102158  0.15087066     0.78100
O1100       O  0.54478108  0.11144956  0.14177263    -0.58000
O1101       O  0.49556785  0.06045956  0.19212403    -0.56400
O1102       O  0.52638319  0.17327313  0.18864872    -0.56400
O1103       O  0.94656194  0.11854022  0.17689876    -0.55600
O1104       O  0.97206144  0.32863132  0.18603618    -0.56800
C1105       C  0.99649539  0.44179329  0.21810565     0.75800
O1106       O  0.53049397  0.38652643  0.14184897    -0.58000
C1107       C  0.98995596  0.31904528  0.20526932     0.75800
C1108       C  0.93188666  0.38705339  0.15488135     0.78200
Cd1109     Cd  0.99311328  0.38390418  0.18410356     1.37500
O1110       O  0.98224135  0.41651398  0.22676419    -0.56800
O1111       O  0.93263690  0.38644678  0.18099985    -0.55600
C1112       C  0.55602101  0.37665066  0.15388792     0.78100
O1113       O  0.95977356  0.38830233  0.14216821    -0.58000
O1114       O  0.00817944  0.44050707  0.19359898    -0.56400
O1115       O  0.00790648  0.34003028  0.21644850    -0.56400
O1116       O  0.55206550  0.37090066  0.17938658    -0.55600
C1117       C  0.00127915  0.03108190  0.23454249     0.03300
C1118       C  0.99939289  0.03145333  0.26397843     0.03300
C1119       C  0.99854096  0.50187976  0.27816858    -0.17300
C1120       C  0.99880647  0.47203342  0.26437171     0.03300
C1121       C  0.99879793  0.47172868  0.23500144     0.03300
C1122       C  0.50053796  0.50121380  0.22078997    -0.17300
H1123       H  0.50123520  0.50088048  0.19837020     0.05300
H1124       H  0.99787592  0.50209135  0.30058649     0.05300
O1125       O  0.71557426  0.07939883  0.44637777    -0.56800
C1126       C  0.74838998  0.18957147  0.46820067     0.75800
O1127       O  0.77992396  0.13845478  0.39306884    -0.58000
C1128       C  0.73906979  0.06717913  0.45933725     0.75800
C1129       C  0.68267017  0.13252258  0.40417428     0.78200
Cd1130     Cd  0.74332701  0.13097587  0.43515813     1.37500
O1131       O  0.73564905  0.16404954  0.47786734    -0.56800
O1132       O  0.68283578  0.13798640  0.42990713    -0.55600
C1133       C  0.80522382  0.12491605  0.40262765     0.78100
O1134       O  0.71083399  0.12789259  0.39262769    -0.58000
O1135       O  0.75800978  0.18822440  0.44316210    -0.56400
O1136       O  0.76337292  0.08555526  0.46357737    -0.56400
O1137       O  0.80147900  0.11363222  0.42676712    -0.55600
O1138       O  0.76456267  0.42271182  0.43473298    -0.56800
C1139       C  0.75022816  0.30880074  0.46730173     0.75800
O1140       O  0.71517586  0.36905268  0.39103379    -0.58000
C1141       C  0.74661875  0.43073530  0.45539002     0.75800
C1142       C  0.81214091  0.36322022  0.40342511     0.78200
Cd1143     Cd  0.74904345  0.36616448  0.43317035     1.37500
O1144       O  0.76224560  0.33522689  0.47512327    -0.56800
O1145       O  0.80908062  0.37080149  0.42869200    -0.55600
C1146       C  0.68756277  0.37043982  0.40417561     0.78100
O1147       O  0.78559908  0.35559574  0.39166426    -0.58000
O1148       O  0.73821826  0.30883921  0.44347466    -0.56400
O1149       O  0.72998810  0.40854404  0.46706779    -0.56400
O1150       O  0.68889358  0.36849742  0.43015269    -0.55600
O1151       O  0.01885967  0.16338389  0.28374373    -0.56800
C1152       C  0.99816437  0.06144218  0.28104456     0.75800
O1153       O  0.52961038  0.12011625  0.35843260    -0.58000
C1154       C  0.99885876  0.18443312  0.29301302     0.75800
C1155       C  0.93383606  0.11696346  0.34466932     0.78200
Cd1156     Cd  0.99732694  0.11953911  0.31511118     1.37500
O1157       O  0.98701056  0.08783931  0.27247412    -0.56800
O1158       O  0.93638655  0.12091556  0.31877643    -0.55600
C1159       C  0.55789044  0.12255001  0.34654889     0.78100
O1160       O  0.96080147  0.11313548  0.35701012    -0.58000
O1161       O  0.00782181  0.06173556  0.30563718    -0.56400
O1162       O  0.97772569  0.17504763  0.31094038    -0.56400
O1163       O  0.55798090  0.12281491  0.32041306    -0.55600
O1164       O  0.53021455  0.33258385  0.30652068    -0.56800
C1165       C  0.50033167  0.44233967  0.28157477     0.75800
O1166       O  0.96615211  0.38897668  0.35770545    -0.58000
C1167       C  0.50770341  0.32097880  0.29200795     0.75800
C1168       C  0.56376456  0.38571644  0.34654229     0.78200
Cd1169     Cd  0.50318273  0.38468541  0.31578861     1.37500
O1170       O  0.51252650  0.41624817  0.27264409    -0.56800
O1171       O  0.56280910  0.39164362  0.32097088    -0.55600
C1172       C  0.94062883  0.37761857  0.34657281     0.78100
O1173       O  0.53590249  0.38154570  0.35883330    -0.58000
O1174       O  0.49022516  0.44201956  0.30655987    -0.56400
O1175       O  0.48434792  0.33982440  0.28637348    -0.56400
O1176       O  0.94424144  0.36992028  0.32139054    -0.55600
C1177       C  0.00126828  0.21875705  0.28529976     0.00900
C1178       C  0.53256123  0.23343188  0.28429447    -0.11000
C1179       C  0.53562911  0.26700073  0.28411043     0.03100
C1180       C  0.50692884  0.28640812  0.28470583     0.00800
C1181       C  0.97589891  0.27158793  0.28264577    -0.11000
C1182       C  0.97283266  0.23812809  0.28319234     0.03000
H1183       H  0.55460737  0.21874434  0.28539934     0.16000
H1184       H  0.95367969  0.28613397  0.28247506     0.16000
C1185       C  0.94008849  0.22439797  0.28217552     0.37600
C1186       C  0.56843200  0.28079701  0.28375901     0.37500
N1187       N  0.91370278  0.21372958  0.28121316    -0.42700
N1188       N  0.59478023  0.29173104  0.28332784    -0.42700
C1189       C  0.65554216  0.37452564  0.38996222     0.00900
C1190       C  0.65589276  0.37614466  0.36098733    -0.11000
C1191       C  0.62666467  0.38022583  0.34652480     0.03100
C1192       C  0.59576329  0.38285344  0.36104123     0.00800
C1193       C  0.59539323  0.38133632  0.39004661    -0.11000
C1194       C  0.62469570  0.37746371  0.40453649     0.03000
H1195       H  0.67919220  0.37406753  0.34940682     0.16000
H1196       H  0.57204914  0.38329296  0.40157582     0.16000
C1197       C  0.62211649  0.37705074  0.43436598     0.37600
C1198       C  0.62939454  0.38069162  0.31671438     0.37500
N1199       N  0.62018703  0.37686363  0.45827009    -0.42700
N1200       N  0.63164063  0.38099289  0.29282672    -0.42700
C1201       C  0.90817431  0.37327196  0.36178524     0.00900
C1202       C  0.88211077  0.35773277  0.34835928    -0.11000
C1203       C  0.85093675  0.35332418  0.36147899     0.03100
C1204       C  0.84510779  0.36471995  0.38872306     0.00800
C1205       C  0.87134998  0.37961295  0.40228821    -0.11000
C1206       C  0.90238887  0.38412830  0.38919428     0.03000
H1207       H  0.88600254  0.34892642  0.32746183     0.16000
H1208       H  0.86748118  0.38859873  0.42314004     0.16000
C1209       C  0.92727842  0.40093532  0.40437345     0.37600
C1210       C  0.82577232  0.33661937  0.34649018     0.37500
N1211       N  0.94703867  0.41457983  0.41662310    -0.42700
N1212       N  0.80573659  0.32309745  0.33443992    -0.42700
C1213       C  0.65104474  0.13081702  0.38885846     0.00900
C1214       C  0.62073266  0.13517770  0.40351354    -0.11000
C1215       C  0.59024430  0.13244547  0.39046252     0.03100
C1216       C  0.58939370  0.12515836  0.36191427     0.00800
C1217       C  0.61968920  0.12105094  0.34724276    -0.11000
C1218       C  0.65014339  0.12378486  0.36025750     0.03000
H1219       H  0.62072266  0.14066808  0.42542084     0.16000
H1220       H  0.61969505  0.11553584  0.32534041     0.16000
C1221       C  0.67995380  0.11919117  0.34353205     0.37600
C1222       C  0.56038428  0.13792278  0.40691173     0.37500
N1223       N  0.70389744  0.11556186  0.33017998    -0.42700
N1224       N  0.53648222  0.14237089  0.42012482    -0.42700
C1225       C  0.90095497  0.11778271  0.35950475     0.00900
C1226       C  0.87512982  0.13526257  0.34783404    -0.11000
C1227       C  0.84403695  0.13815729  0.36137418     0.03100
C1228       C  0.83768036  0.12247527  0.38692812     0.00800
C1229       C  0.86350508  0.10460770  0.39838412    -0.11000
C1230       C  0.89487815  0.10246521  0.38516140     0.03000
H1231       H  0.87952823  0.14761289  0.32841349     0.16000
H1232       H  0.85938225  0.09247360  0.41792646     0.16000
C1233       C  0.92023633  0.08412216  0.39835452     0.37600
C1234       C  0.81983614  0.15859440  0.34893170     0.37500
N1235       N  0.94070928  0.06959280  0.40889216    -0.42700
N1236       N  0.80063979  0.17525893  0.33902184    -0.42700
C1237       C  0.74459156  0.46472170  0.46411055     0.00900
C1238       C  0.71350139  0.47953272  0.46674657    -0.11000
C1239       C  0.71083315  0.01315962  0.46754053     0.03100
C1240       C  0.73976140  0.03240814  0.46618808     0.00800
C1241       C  0.77074283  0.01723068  0.46675777    -0.11000
C1242       C  0.77334102  0.48376816  0.46538474     0.03000
H1243       H  0.69125745  0.46497547  0.46621623     0.16000
H1244       H  0.79318912  0.03153047  0.46623450     0.16000
C1245       C  0.80587708  0.46948289  0.46424487     0.37600
C1246       C  0.67817830  0.02717604  0.46917071     0.37500
N1247       N  0.83188711  0.45789712  0.46332112    -0.42700
N1248       N  0.65195996  0.03829079  0.47073413    -0.42700
C1249       C  0.99189514  0.28455960  0.21219190     0.00900
C1250       C  0.52332676  0.27084407  0.21468193    -0.11000
C1251       C  0.52742197  0.23745830  0.21436592     0.03100
C1252       C  0.49964551  0.21717322  0.21190236     0.00800
C1253       C  0.96791300  0.23086612  0.21216136    -0.11000
C1254       C  0.96386268  0.26430362  0.21207278     0.03000
H1255       H  0.54497881  0.28621288  0.21518304     0.16000
H1256       H  0.94635682  0.21551834  0.21069427     0.16000
C1257       C  0.93076583  0.27722261  0.21152874     0.37600
C1258       C  0.56042785  0.22462740  0.21629136     0.37500
N1259       N  0.90418508  0.28747918  0.21126694    -0.42700
N1260       N  0.58685626  0.21433929  0.21803509    -0.42700
C1261       C  0.65037147  0.36541182  0.10934089     0.00900
C1262       C  0.64800583  0.36009637  0.13797845    -0.11000
C1263       C  0.61774306  0.36296170  0.15276801     0.03100
C1264       C  0.58868849  0.37204725  0.13902421     0.00800
C1265       C  0.59089766  0.37659393  0.11026712    -0.11000
C1266       C  0.62104018  0.37304022  0.09538689     0.03000
H1267       H  0.67000891  0.35383297  0.14904273     0.16000
H1268       H  0.56888669  0.38282881  0.09920358     0.16000
C1269       C  0.62072975  0.37693671  0.06575086     0.37600
C1270       C  0.61757682  0.35618988  0.18202477     0.37500
N1271       N  0.62047565  0.37985317  0.04198559    -0.42700
N1272       N  0.61742118  0.35052483  0.20542651    -0.42700
C1273       C  0.89997178  0.38481606  0.14032601     0.00900
C1274       C  0.87156608  0.37431289  0.15527628    -0.11000
C1275       C  0.84127235  0.36963113  0.14240675     0.03100
C1276       C  0.83877722  0.37549082  0.11376456     0.00800
C1277       C  0.86711665  0.38646618  0.09895067    -0.11000
C1278       C  0.89732794  0.39122633  0.11183149     0.03000
H1279       H  0.87306404  0.36919354  0.17713621     0.16000
H1280       H  0.86579403  0.39149648  0.07706830     0.16000
C1281       C  0.92486629  0.40332099  0.09521595     0.37600
C1282       C  0.81341377  0.35889553  0.15934934     0.37500
N1283       N  0.94682695  0.41311999  0.08183180    -0.42700
N1284       N  0.79124118  0.35036237  0.17314977    -0.42700
C1285       C  0.66628510  0.12275434  0.11138975     0.00900
C1286       C  0.66494215  0.12088787  0.14034961    -0.11000
C1287       C  0.63461001  0.11743086  0.15501697     0.03100
C1288       C  0.60452796  0.11620225  0.14064002     0.00800
C1289       C  0.60608696  0.11775421  0.11165168    -0.13800
C1290       C  0.63633240  0.12100893  0.09704597     0.03000
H1291       H  0.68772273  0.12180215  0.15160141     0.16000
H1292       H  0.58344517  0.11710385  0.10021052     0.16000
C1293       C  0.63559221  0.12382349  0.06732744     0.37600
C1294       C  0.63544836  0.11486350  0.18473362     0.37500
N1295       N  0.63524167  0.12613481  0.04351840    -0.42700
N1296       N  0.63628389  0.11272919  0.20853698    -0.42700
C1297       C  0.91514000  0.12384236  0.13575430     0.00900
C1298       C  0.88528131  0.12691311  0.15130270    -0.11000
C1299       C  0.85471507  0.13003054  0.13857859     0.03100
C1300       C  0.85325685  0.13005728  0.10940690     0.00800
C1301       C  0.88310324  0.12695027  0.09383751    -0.11000
C1302       C  0.91370743  0.12394085  0.10659370     0.03000
H1303       H  0.88568866  0.12701749  0.17365573     0.16000
H1304       H  0.88264966  0.12676396  0.07148854     0.16000
C1305       C  0.94301538  0.12073259  0.08902395     0.37600
C1306       C  0.82544184  0.13299449  0.15625597     0.37500
N1307       N  0.96643271  0.11818127  0.07484126    -0.42700
N1308       N  0.80207726  0.13538246  0.17052707    -0.42700
C1309       C  0.75587708  0.03334761  0.03683753     0.00900
C1310       C  0.78506184  0.01506719  0.03639904    -0.11000
C1311       C  0.78404066  0.48151091  0.03766524     0.03100
C1312       C  0.75324108  0.46554768  0.03930206     0.00800
C1313       C  0.72406770  0.48362916  0.03793646    -0.11000
C1314       C  0.72506214  0.01723166  0.03652343     0.03000
H1315       H  0.80884966  0.02713997  0.03665770     0.16000
H1316       H  0.70030378  0.47147851  0.03912425     0.16000
C1317       C  0.69399523  0.03432065  0.03682748     0.37600
C1318       C  0.81489182  0.46449575  0.04014816     0.37500
N1319       N  0.66888625  0.04764518  0.03691227    -0.42700
N1320       N  0.83979998  0.45121487  0.04232226    -0.42700
C1321       C  0.75070707  0.27907615  0.98443085     0.03300
C1322       C  0.75223717  0.27932559  0.51374642     0.03300
C1323       C  0.75438481  0.24978431  0.52772049    -0.17300
C1324       C  0.75421674  0.22003551  0.51384895     0.03300
C1325       C  0.75128370  0.21971215  0.98469385     0.03300
C1326       C  0.75012959  0.24924659  0.97056758    -0.17300
H1327       H  0.74847529  0.24898471  0.94823375     0.05300
H1328       H  0.75599494  0.24991792  0.55005665     0.05300
O1329       O  0.76996133  0.16464864  0.52169041    -0.56800
C1330       C  0.75848337  0.06812862  0.54290962     0.75800
O1331       O  0.79354451  0.13575993  0.60682664    -0.58000
C1332       C  0.75707233  0.19036593  0.53081727     0.75800
C1333       C  0.69884739  0.12617589  0.59649718     0.78200
Cd1334     Cd  0.76020044  0.13261714  0.56473006     1.37500
O1335       O  0.78164867  0.07858876  0.55737838    -0.56800
O1336       O  0.70276417  0.11713303  0.57171880    -0.55600
C1337       C  0.82145519  0.13228934  0.59449474     0.78100
O1338       O  0.72409054  0.13826107  0.60755284    -0.58000
O1339       O  0.73722885  0.08854971  0.53577188    -0.56400
O1340       O  0.74695480  0.18964061  0.55575377    -0.56400
O1341       O  0.82084719  0.13030351  0.56840840    -0.55600
O1342       O  0.76888498  0.40972735  0.53553648    -0.56800
C1343       C  0.75088832  0.30911401  0.53100163     0.75800
O1344       O  0.78069860  0.36089276  0.60959715    -0.58000
C1345       C  0.75065954  0.43117668  0.54662319     0.75800
C1346       C  0.68364552  0.36402548  0.59499079     0.78200
Cd1347     Cd  0.74799485  0.36590244  0.56672196     1.37500
O1348       O  0.73622515  0.33447194  0.52392720    -0.56800
O1349       O  0.68780213  0.37174833  0.56988406    -0.55600
C1350       C  0.80748881  0.37124180  0.59850335     0.78100
O1351       O  0.70963806  0.35589091  0.60730779    -0.58000
O1352       O  0.76370575  0.31006281  0.55446919    -0.56400
O1353       O  0.73049175  0.42199783  0.56542002    -0.56400
O1354       O  0.80634525  0.37818146  0.57314296    -0.55600
O1355       O  0.48237405  0.16173706  0.71241791    -0.56800
C1356       C  0.50407189  0.06058644  0.71705456     0.75800
O1357       O  0.97519849  0.12130579  0.63900420    -0.58000
C1358       C  0.50325064  0.18277346  0.70470007     0.75800
C1359       C  0.57125768  0.11508049  0.65492997     0.78200
Cd1360     Cd  0.50674666  0.11799369  0.68271041     1.37500
O1361       O  0.51531827  0.08699019  0.72566532    -0.56800
O1362       O  0.56758631  0.11869897  0.68078265    -0.55600
C1363       C  0.94676953  0.12102245  0.65087022     0.78100
O1364       O  0.54478052  0.11145554  0.64177270    -0.58000
O1365       O  0.49556663  0.06046089  0.69212427    -0.56400
O1366       O  0.52638535  0.17327361  0.68865071    -0.56400
O1367       O  0.94656196  0.11854303  0.67689848    -0.55600
O1368       O  0.97206609  0.32863082  0.68603463    -0.56800
C1369       C  0.99649471  0.44179403  0.71810522     0.75800
O1370       O  0.53049461  0.38652551  0.64184916    -0.58000
C1371       C  0.98995879  0.31904580  0.70526934     0.75800
C1372       C  0.93188641  0.38705309  0.65488228     0.78200
Cd1373     Cd  0.99311396  0.38390452  0.68410354     1.37500
O1374       O  0.98224096  0.41651457  0.72676375    -0.56800
O1375       O  0.93263719  0.38644516  0.68100074    -0.55600
C1376       C  0.55602186  0.37665107  0.65388856     0.78100
O1377       O  0.95977309  0.38830317  0.64216885    -0.58000
O1378       O  0.00817890  0.44050787  0.69359856    -0.56400
O1379       O  0.00790701  0.34003165  0.71644990    -0.56400
O1380       O  0.55206663  0.37090292  0.67938756    -0.55600
C1381       C  0.00127872  0.03108278  0.73454250     0.03300
C1382       C  0.99939233  0.03145413  0.76397848     0.03300
C1383       C  0.99854012  0.50188038  0.77816830    -0.17300
C1384       C  0.99880540  0.47203407  0.76437137     0.03300
C1385       C  0.99879701  0.47172943  0.73500109     0.03300
C1386       C  0.50053723  0.50121474  0.72079014    -0.17300
H1387       H  0.50123447  0.50088153  0.69837036     0.05300
H1388       H  0.99787498  0.50209185  0.80058620     0.05300
O1389       O  0.71557418  0.07939794  0.94638039    -0.56800
C1390       C  0.74839041  0.18957072  0.96820151     0.75800
O1391       O  0.77992488  0.13845272  0.89307001    -0.58000
C1392       C  0.73907035  0.06717785  0.95933883     0.75800
C1393       C  0.68267071  0.13252087  0.90417610     0.78200
Cd1394     Cd  0.74332782  0.13097455  0.93515953     1.37500
O1395       O  0.73565101  0.16404837  0.97786873    -0.56800
O1396       O  0.68283656  0.13798555  0.92990880    -0.55600
C1397       C  0.80522509  0.12491494  0.90262918     0.78100
O1398       O  0.71083440  0.12789011  0.89262950    -0.58000
O1399       O  0.75800892  0.18822381  0.94316262    -0.56400
O1400       O  0.76337400  0.08555365  0.96357801    -0.56400
O1401       O  0.80148044  0.11363183  0.92676891    -0.55600
O1402       O  0.76456385  0.42271022  0.93473331    -0.56800
C1403       C  0.75022790  0.30879997  0.96730214     0.75800
O1404       O  0.71517697  0.36905300  0.89103352    -0.58000
C1405       C  0.74661949  0.43073403  0.95538999     0.75800
C1406       C  0.81214169  0.36321867  0.90342600     0.78200
Cd1407     Cd  0.74904384  0.36616334  0.93317050     1.37500
O1408       O  0.76224658  0.33522577  0.97512314    -0.56800
O1409       O  0.80908097  0.37080154  0.92869250    -0.55600
C1410       C  0.68756373  0.37044017  0.90417511     0.78100
O1411       O  0.78560014  0.35559271  0.89166536    -0.58000
O1412       O  0.73821705  0.30883855  0.94347543    -0.56400
O1413       O  0.72998814  0.40854307  0.96706751    -0.56400
O1414       O  0.68889414  0.36849679  0.93015217    -0.55600
O1415       O  0.01886646  0.16338617  0.78374880    -0.56800
C1416       C  0.99816419  0.06144292  0.78104490     0.75800
O1417       O  0.52960996  0.12012134  0.85843419    -0.58000
C1418       C  0.99886017  0.18443373  0.79301249     0.75800
C1419       C  0.93383757  0.11696422  0.84467104     0.78200
Cd1420     Cd  0.99732766  0.11953989  0.81511188     1.37500
O1421       O  0.98701242  0.08784075  0.77247422    -0.56800
O1422       O  0.93638738  0.12091259  0.81877771    -0.55600
C1423       C  0.55789065  0.12255004  0.84655075     0.78100
O1424       O  0.96080343  0.11314008  0.85701207    -0.58000
O1425       O  0.00781996  0.06173556  0.80563803    -0.56400
O1426       O  0.97772124  0.17504637  0.81093427    -0.56400
O1427       O  0.55798195  0.12281019  0.82041485    -0.55600
O1428       O  0.53021460  0.33258456  0.80652334    -0.56800
C1429       C  0.50033099  0.44234033  0.78157470     0.75800
O1430       O  0.96615196  0.38897884  0.85770525    -0.58000
C1431       C  0.50770501  0.32097982  0.79200880     0.75800
C1432       C  0.56376581  0.38571772  0.84654152     0.78200
Cd1433     Cd  0.50318318  0.38468631  0.81578878     1.37500
O1434       O  0.51252595  0.41624890  0.77264397    -0.56800
O1435       O  0.56281015  0.39164299  0.82096978    -0.55600
C1436       C  0.94062939  0.37761821  0.84657331     0.78100
O1437       O  0.53590378  0.38154891  0.85883310    -0.58000
O1438       O  0.49022475  0.44202019  0.80655988    -0.56400
O1439       O  0.48435043  0.33982566  0.78637237    -0.56400
O1440       O  0.94424249  0.36991813  0.82139150    -0.55600
C1441       C  0.00127008  0.21875796  0.78529986     0.00900
C1442       C  0.53256362  0.23343311  0.78429651    -0.11000
C1443       C  0.53563137  0.26700197  0.78411288     0.03100
C1444       C  0.50693106  0.28640921  0.78470661     0.00800
C1445       C  0.97590091  0.27158887  0.78264450    -0.11000
C1446       C  0.97283463  0.23812904  0.78319076     0.03000
H1447       H  0.55460968  0.21874577  0.78540263     0.16000
H1448       H  0.95368164  0.28613503  0.78247236     0.16000
C1449       C  0.94009062  0.22439898  0.78217156     0.37600
C1450       C  0.56843416  0.28079844  0.78376407     0.37500
N1451       N  0.91370507  0.21373062  0.78120728    -0.42700
N1452       N  0.59478222  0.29173277  0.78333519    -0.42700
C1453       C  0.65554335  0.37452682  0.88996155     0.00900
C1454       C  0.65589367  0.37614192  0.86098649    -0.11000
C1455       C  0.62666565  0.38022327  0.84652384     0.03100
C1456       C  0.59576467  0.38285467  0.86104029     0.00800
C1457       C  0.59539487  0.38134157  0.89004585    -0.11000
C1458       C  0.62469736  0.37746932  0.90453580     0.03000
H1459       H  0.67919281  0.37406150  0.84940596     0.16000
H1460       H  0.57205135  0.38330147  0.90157496     0.16000
C1461       C  0.62211866  0.37706233  0.93436540     0.37600
C1462       C  0.62939512  0.38068547  0.81671341     0.37500
N1463       N  0.62018963  0.37688024  0.95826953    -0.42700
N1464       N  0.63164097  0.38098404  0.79282566    -0.42700
C1465       C  0.90817510  0.37327085  0.86178604     0.00900
C1466       C  0.88211163  0.35773138  0.84836014    -0.11000
C1467       C  0.85093768  0.35332251  0.86147999     0.03100
C1468       C  0.84510869  0.36471828  0.88872404     0.00800
C1469       C  0.87135092  0.37961121  0.90228923    -0.11000
C1470       C  0.90238978  0.38412675  0.88919523     0.03000
H1471       H  0.88600332  0.34892523  0.82746278     0.16000
H1472       H  0.86748222  0.38859674  0.92314110     0.16000
C1473       C  0.92727942  0.40093338  0.90437459     0.37600
C1474       C  0.82577337  0.33661735  0.84649132     0.37500
N1475       N  0.94703972  0.41457756  0.91662448    -0.42700
N1476       N  0.80573764  0.32309512  0.83444128    -0.42700
C1477       C  0.65104515  0.13081542  0.88886040     0.00900
C1478       C  0.62073330  0.13518064  0.90351481    -0.11000
C1479       C  0.59024478  0.13244897  0.89046388     0.03100
C1480       C  0.58939382  0.12515790  0.86191635     0.00800
C1481       C  0.61968912  0.12104572  0.84724563    -0.11000
C1482       C  0.65014340  0.12377894  0.86026022     0.03000
H1483       H  0.62072361  0.14067431  0.92542151     0.16000
H1484       H  0.61969474  0.11552726  0.82534375     0.16000
C1485       C  0.67995343  0.11917941  0.84353557     0.37600
C1486       C  0.56038506  0.13793107  0.90691232     0.37500
N1487       N  0.70389669  0.11554519  0.83018402    -0.42700
N1488       N  0.53648341  0.14238314  0.92012485    -0.42700
C1489       C  0.90095662  0.11778322  0.85950662     0.00900
C1490       C  0.87513098  0.13526196  0.84783550    -0.11000
C1491       C  0.84403799  0.13815609  0.86137555     0.03100
C1492       C  0.83768179  0.12247455  0.88692975     0.00800
C1493       C  0.86350707  0.10460802  0.89838617    -0.11000
C1494       C  0.89488028  0.10246625  0.88516353     0.03000
H1495       H  0.87952908  0.14761182  0.82841480     0.16000
H1496       H  0.85938456  0.09247430  0.91792865     0.16000
C1497       C  0.92023921  0.08412436  0.89835689     0.37600
C1498       C  0.81983670  0.15859226  0.84893265     0.37500
N1499       N  0.94071285  0.06959605  0.90889457    -0.42700
N1500       N  0.80064005  0.17525614  0.83902239    -0.42700
C1501       C  0.74459263  0.46472046  0.96411039     0.00900
C1502       C  0.71350252  0.47953143  0.96674759    -0.11000
C1503       C  0.71083410  0.01315802  0.96754235     0.03100
C1504       C  0.73976218  0.03240676  0.96618932     0.00800
C1505       C  0.77074378  0.01722950  0.96675811    -0.11000
C1506       C  0.77334216  0.48376695  0.96538347     0.03000
H1507       H  0.69125856  0.46497412  0.96621811     0.16000
H1508       H  0.79318992  0.03152936  0.96623430     0.16000
C1509       C  0.80587828  0.46948185  0.96424189     0.37600
C1510       C  0.67817914  0.02717403  0.96917313     0.37500
N1511       N  0.83188836  0.45789621  0.96331655    -0.42700
N1512       N  0.65196058  0.03828830  0.97073713    -0.42700
C1513       C  0.99189792  0.28456034  0.71219253     0.00900
C1514       C  0.52332922  0.27084499  0.71468321    -0.11000
C1515       C  0.52742416  0.23745912  0.71436733     0.03100
C1516       C  0.49964757  0.21717426  0.71190347     0.00800
C1517       C  0.96791523  0.23086719  0.71216160    -0.11000
C1518       C  0.96386533  0.26430467  0.71207304     0.03000
H1519       H  0.54498126  0.28621365  0.71518451     0.16000
H1520       H  0.94635887  0.21551969  0.71069404     0.16000
C1521       C  0.93076869  0.27722414  0.71152848     0.37600
C1522       C  0.56042994  0.22462796  0.71629293     0.37500
N1523       N  0.90418826  0.28748133  0.71126625    -0.42700
N1524       N  0.58685823  0.21433962  0.71803670    -0.42700
C1525       C  0.65037192  0.36541031  0.60934158     0.00900
C1526       C  0.64800670  0.36009667  0.63797942    -0.11000
C1527       C  0.61774399  0.36296257  0.65276903     0.03100
C1528       C  0.58868925  0.37204696  0.63902497     0.00800
C1529       C  0.59089795  0.37659139  0.61026761    -0.11000
C1530       C  0.62104036  0.37303692  0.59538739     0.03000
H1531       H  0.67000994  0.35383449  0.64904382     0.16000
H1532       H  0.56888684  0.38282490  0.59920394     0.16000
C1533       C  0.62072941  0.37693037  0.56575106     0.37600
C1534       C  0.61757801  0.35619244  0.68202606     0.37500
N1535       N  0.62047480  0.37984434  0.54198562    -0.42700
N1536       N  0.61742249  0.35052870  0.70542806    -0.42700
C1537       C  0.89997122  0.38481632  0.64032729     0.00900
C1538       C  0.87156534  0.37431398  0.65527780    -0.11000
C1539       C  0.84127128  0.36963317  0.64240855     0.03100
C1540       C  0.83877618  0.37549237  0.61376628     0.00800
C1541       C  0.86711565  0.38646727  0.59895226    -0.11000
C1542       C  0.89732711  0.39122692  0.61183284     0.03000
H1543       H  0.87306334  0.36919485  0.67713783     0.16000
H1544       H  0.86579297  0.39149751  0.57706987     0.16000
C1545       C  0.92486532  0.40332145  0.59521711     0.37600
C1546       C  0.81341208  0.35889981  0.65935157     0.37500
N1547       N  0.94682584  0.41312036  0.58183273    -0.42700
N1548       N  0.79123902  0.35036869  0.67315235    -0.42700
C1549       C  0.66628422  0.12275697  0.61138947     0.00900
C1550       C  0.66494176  0.12088908  0.64034923    -0.11000
C1551       C  0.63460991  0.11743163  0.65501682     0.03100
C1552       C  0.60452752  0.11620459  0.64064022     0.00800
C1553       C  0.60608604  0.11775833  0.61165198    -0.13800
C1554       C  0.63633123  0.12101282  0.59704600     0.03000
H1555       H  0.68772274  0.12180215  0.65160078     0.16000
H1556       H  0.58344392  0.11710904  0.60021100     0.16000
C1557       C  0.63559059  0.12382769  0.56732754     0.37600
C1558       C  0.63544896  0.11486188  0.68473330     0.37500
N1559       N  0.63523936  0.12613901  0.54351853    -0.42700
N1560       N  0.63628539  0.11272547  0.70853642    -0.42700
C1561       C  0.91513998  0.12384320  0.63575381     0.00900
C1562       C  0.88528140  0.12691460  0.65130226    -0.11000
C1563       C  0.85471512  0.13003225  0.63857824     0.03100
C1564       C  0.85325660  0.13005832  0.60940656     0.00800
C1565       C  0.88310284  0.12695063  0.59383714    -0.11000
C1566       C  0.91370712  0.12394122  0.60659320     0.03000
H1567       H  0.88568887  0.12701944  0.67365527     0.16000
H1568       H  0.88264906  0.12676392  0.57148805     0.16000
C1569       C  0.94301488  0.12073310  0.58902326     0.37600
C1570       C  0.82544220  0.13299754  0.65625574     0.37500
N1571       N  0.96643189  0.11818204  0.57484020    -0.42700
N1572       N  0.80207794  0.13538681  0.67052704    -0.42700
C1573       C  0.75587775  0.03334733  0.53683820     0.00900
C1574       C  0.78506251  0.01506694  0.53640046    -0.11000
C1575       C  0.78404140  0.48151064  0.53766685     0.03100
C1576       C  0.75324179  0.46554731  0.53930222     0.00800
C1577       C  0.72406844  0.48362874  0.53793577    -0.11000
C1578       C  0.72506289  0.01723142  0.53652272     0.03000
H1579       H  0.80885022  0.02713973  0.53666015     0.16000
H1580       H  0.70030468  0.47147810  0.53912250     0.16000
C1581       C  0.69399611  0.03432056  0.53682616     0.37600
C1582       C  0.81489242  0.46449544  0.54015036     0.37500
N1583       N  0.66888733  0.04764545  0.53691052    -0.42700
N1584       N  0.83980050  0.45121446  0.54232489    -0.42700
C1585       C  0.75070745  0.77907646  0.48443053     0.03300
C1586       C  0.75223584  0.77932505  0.01374718     0.03300
C1587       C  0.75438342  0.74978389  0.02772143    -0.17300
C1588       C  0.75421605  0.72003508  0.01384998     0.03300
C1589       C  0.75128325  0.71971241  0.48469377     0.03300
C1590       C  0.75012963  0.74924683  0.47056737    -0.17300
H1591       H  0.74847515  0.74898483  0.44823359     0.05300
H1592       H  0.75599312  0.74991757  0.05005761     0.05300
O1593       O  0.76996287  0.66464910  0.02169175    -0.56800
C1594       C  0.75848295  0.56812898  0.04290970     0.75800
O1595       O  0.79354539  0.63575948  0.10682667    -0.58000
C1596       C  0.75707208  0.69036569  0.03081831     0.75800
C1597       C  0.69884838  0.62617449  0.09649812     0.78200
Cd1598     Cd  0.76020103  0.63261695  0.06473060     1.37500
O1599       O  0.78164905  0.57858901  0.05737765    -0.56800
O1600       O  0.70276560  0.61713098  0.07171996    -0.55600
C1601       C  0.82145602  0.63228915  0.09449467     0.78100
O1602       O  0.72409115  0.63826070  0.10755363    -0.58000
O1603       O  0.73722821  0.58855015  0.03577258    -0.56400
O1604       O  0.74695314  0.68963979  0.05575443    -0.56400
O1605       O  0.82084795  0.63030354  0.06840832    -0.55600
O1606       O  0.76888584  0.90972769  0.03553633    -0.56800
C1607       C  0.75088686  0.80911356  0.03100231     0.75800
O1608       O  0.78069888  0.86089514  0.10959652    -0.58000
C1609       C  0.75065998  0.93117699  0.04662254     0.75800
C1610       C  0.68364541  0.86402661  0.09499031     0.78200
Cd1611     Cd  0.74799491  0.86590274  0.06672158     1.37500
O1612       O  0.73622596  0.83447233  0.02392678    -0.56800
O1613       O  0.68780188  0.87174738  0.06988308    -0.55600
C1614       C  0.80749001  0.87124056  0.09850171     0.78100
O1615       O  0.70963815  0.85589378  0.10730785    -0.58000
O1616       O  0.76370216  0.81006175  0.05447075    -0.56400
O1617       O  0.73049184  0.92199813  0.06541912    -0.56400
O1618       O  0.80634701  0.87817718  0.07314065    -0.55600
O1619       O  0.48237536  0.66173532  0.21241923    -0.56800
C1620       C  0.50407226  0.56058544  0.21705432     0.75800
O1621       O  0.97519904  0.62130915  0.13900448    -0.58000
C1622       C  0.50324953  0.68277266  0.20469853     0.75800
C1623       C  0.57125788  0.61507923  0.15492998     0.78200
Cd1624     Cd  0.50674651  0.61799255  0.18271004     1.37500
O1625       O  0.51531837  0.58698931  0.22566511    -0.56800
O1626       O  0.56758597  0.61870184  0.18078220    -0.55600
C1627       C  0.94676996  0.62102182  0.15087017     0.78100
O1628       O  0.54478109  0.61145033  0.14177294    -0.58000
O1629       O  0.49556705  0.56045976  0.19212401    -0.56400
O1630       O  0.52638222  0.67327370  0.18864667    -0.56400
O1631       O  0.94656213  0.61853800  0.17689811    -0.55600
O1632       O  0.97206146  0.82863106  0.18603656    -0.56800
C1633       C  0.99649530  0.94179308  0.21810587     0.75800
O1634       O  0.53049444  0.88652678  0.14184900    -0.58000
C1635       C  0.98995579  0.81904499  0.20526983     0.75800
C1636       C  0.93188686  0.88705339  0.15488146     0.78200
Cd1637     Cd  0.99311345  0.88390389  0.18410391     1.37500
O1638       O  0.98224173  0.91651362  0.22676463    -0.56800
O1639       O  0.93263703  0.88644732  0.18099999    -0.55600
C1640       C  0.55602118  0.87665018  0.15388786     0.78100
O1641       O  0.95977381  0.88830168  0.14216838    -0.58000
O1642       O  0.00817895  0.94050693  0.19359907    -0.56400
O1643       O  0.00790639  0.84002993  0.21644897    -0.56400
O1644       O  0.55206541  0.87089937  0.17938637    -0.55600
C1645       C  0.00127889  0.53108205  0.23454263     0.03300
C1646       C  0.99939228  0.53145336  0.26397859     0.03300
C1647       C  0.99854148  0.00187981  0.27816857    -0.17300
C1648       C  0.99880665  0.97203340  0.26437184     0.03300
C1649       C  0.99879785  0.97172854  0.23500157     0.03300
C1650       C  0.50053848  0.00121382  0.22079003    -0.17300
H1651       H  0.50123599  0.00088051  0.19837041     0.05300
H1652       H  0.99787663  0.00209155  0.30058648     0.05300
O1653       O  0.71557420  0.57939730  0.44637699    -0.56800
C1654       C  0.74838938  0.68957107  0.46820155     0.75800
O1655       O  0.77992350  0.63845563  0.39307089    -0.58000
C1656       C  0.73906819  0.56717877  0.45933914     0.75800
C1657       C  0.68266911  0.63252218  0.40417604     0.78200
Cd1658     Cd  0.74332606  0.63097513  0.43515960     1.37500
O1659       O  0.73564776  0.66404949  0.47786836    -0.56800
O1660       O  0.68283461  0.63798603  0.42990891    -0.55600
C1661       C  0.80522280  0.62491518  0.40262897     0.78100
O1662       O  0.71083294  0.62789200  0.39262958    -0.58000
O1663       O  0.75800967  0.68822348  0.44316315    -0.56400
O1664       O  0.76336998  0.58555583  0.46358154    -0.56400
O1665       O  0.80147741  0.61362949  0.42676774    -0.55600
O1666       O  0.76456017  0.92271168  0.43472976    -0.56800
C1667       C  0.75022798  0.80880038  0.46730177     0.75800
O1668       O  0.71517533  0.86905133  0.39103341    -0.58000
C1669       C  0.74661843  0.93073526  0.45538805     0.75800
C1670       C  0.81214099  0.86321979  0.40342548     0.78200
Cd1671     Cd  0.74904302  0.86616383  0.43316991     1.37500
O1672       O  0.76224470  0.83522682  0.47512337    -0.56800
O1673       O  0.80908021  0.87080144  0.42869225    -0.55600
C1674       C  0.68756225  0.87043815  0.40417525     0.78100
O1675       O  0.78559946  0.85559466  0.39166445    -0.58000
O1676       O  0.73821868  0.80883845  0.44347447    -0.56400
O1677       O  0.72998968  0.90854392  0.46706764    -0.56400
O1678       O  0.68889311  0.86849565  0.43015233    -0.55600
O1679       O  0.01885839  0.66338389  0.28374473    -0.56800
C1680       C  0.99816346  0.56144212  0.28104492     0.75800
O1681       O  0.52961044  0.62011568  0.35843222    -0.58000
C1682       C  0.99885743  0.68443307  0.29301403     0.75800
C1683       C  0.93383504  0.61696311  0.34467039     0.78200
Cd1684     Cd  0.99732602  0.61953881  0.31511199     1.37500
O1685       O  0.98701035  0.58783951  0.27247441    -0.56800
O1686       O  0.93638552  0.62091566  0.31877755    -0.55600
C1687       C  0.55789065  0.62255006  0.34654891     0.78100
O1688       O  0.96080048  0.61313466  0.35701105    -0.58000
O1689       O  0.00781998  0.56173512  0.30563781    -0.56400
O1690       O  0.97772432  0.67504744  0.31094129    -0.56400
O1691       O  0.55798166  0.62281555  0.32041305    -0.55600
O1692       O  0.53021541  0.83258420  0.30651953    -0.56800
C1693       C  0.50033181  0.94233955  0.28157463     0.75800
O1694       O  0.96615224  0.88897749  0.35770605    -0.58000
C1695       C  0.50770408  0.82097884  0.29200718     0.75800
C1696       C  0.56376413  0.88571581  0.34654207     0.78200
Cd1697     Cd  0.50318265  0.88468514  0.31578810     1.37500
O1698       O  0.51252649  0.91624804  0.27264381    -0.56800
O1699       O  0.56280879  0.89164286  0.32097063    -0.55600
C1700       C  0.94062904  0.87761914  0.34657345     0.78100
O1701       O  0.53590201  0.88154535  0.35883304    -0.58000
O1702       O  0.49022535  0.94201938  0.30655973    -0.56400
O1703       O  0.48434803  0.83982404  0.28637325    -0.56400
O1704       O  0.94424173  0.86992063  0.32139125    -0.55600
C1705       C  0.00126711  0.71875710  0.28530097     0.00900
C1706       C  0.53256274  0.73343218  0.28429325    -0.11000
C1707       C  0.53563037  0.76700107  0.28410926     0.03100
C1708       C  0.50692992  0.78640823  0.28470490     0.00800
C1709       C  0.97589815  0.77158818  0.28264678    -0.11000
C1710       C  0.97283163  0.73812834  0.28319341     0.03000
H1711       H  0.55460900  0.71874476  0.28539800     0.16000
H1712       H  0.95367902  0.78613442  0.28247594     0.16000
C1713       C  0.94008741  0.72439839  0.28217629     0.37600
C1714       C  0.56843318  0.78079757  0.28375778     0.37500
N1715       N  0.91370165  0.71373015  0.28121360    -0.42700
N1716       N  0.59478140  0.79173166  0.28332660    -0.42700
C1717       C  0.65554163  0.87452396  0.38996187     0.00900
C1718       C  0.65589234  0.87614406  0.36098702    -0.11000
C1719       C  0.62666426  0.88022570  0.34652455     0.03100
C1720       C  0.59576284  0.88285257  0.36104097     0.00800
C1721       C  0.59539265  0.88133430  0.39004632    -0.11000
C1722       C  0.62469511  0.87746129  0.40453613     0.03000
H1723       H  0.67919178  0.87406754  0.34940652     0.16000
H1724       H  0.57204858  0.88329034  0.40157548     0.16000
C1725       C  0.62211577  0.87704720  0.43436559     0.37600
C1726       C  0.62939427  0.88069300  0.31671415     0.37500
N1727       N  0.62018622  0.87685921  0.45826968    -0.42700
N1728       N  0.63164036  0.88099562  0.29282650    -0.42700
C1729       C  0.90817452  0.87327238  0.36178591     0.00900
C1730       C  0.88211152  0.85773187  0.34836028    -0.11000
C1731       C  0.85093756  0.85332292  0.36148005     0.03100
C1732       C  0.84510801  0.86471984  0.38872366     0.00800
C1733       C  0.87134965  0.87961426  0.40228847    -0.11000
C1734       C  0.90238862  0.88412970  0.38919460     0.03000
H1735       H  0.88600367  0.84892472  0.32746327     0.16000
H1736       H  0.86748037  0.88860098  0.42313994     0.16000
C1737       C  0.92727771  0.90093777  0.40437344     0.37600
C1738       C  0.82577387  0.83661628  0.34649182     0.37500
N1739       N  0.94703763  0.91458310  0.41662287    -0.42700
N1740       N  0.80573869  0.82309282  0.33444217    -0.42700
C1741       C  0.65104389  0.63081677  0.38885994     0.00900
C1742       C  0.62073149  0.63517639  0.40351478    -0.11000
C1743       C  0.59024343  0.63244439  0.39046326     0.03100
C1744       C  0.58939352  0.62515841  0.36191473     0.00800
C1745       C  0.61968932  0.62105204  0.34724353    -0.11000
C1746       C  0.65014318  0.62378591  0.36025868     0.03000
H1747       H  0.62072102  0.64066583  0.42542232     0.16000
H1748       H  0.61969567  0.61553781  0.32534084     0.16000
C1749       C  0.67995394  0.61919370  0.34353336     0.37600
C1750       C  0.56038296  0.63792082  0.40691214     0.37500
N1751       N  0.70389787  0.61556559  0.33018138    -0.42700
N1752       N  0.53648048  0.64236832  0.42012483    -0.42700
C1753       C  0.90095393  0.61778233  0.35950589     0.00900
C1754       C  0.87512899  0.63526303  0.34783572    -0.11000
C1755       C  0.84403618  0.63815770  0.36137598     0.03100
C1756       C  0.83767932  0.62247461  0.38692940     0.00800
C1757       C  0.86350380  0.60460619  0.39838484    -0.11000
C1758       C  0.89487686  0.60246384  0.38516208     0.03000
H1759       H  0.87952757  0.64761404  0.32841553     0.16000
H1760       H  0.85938077  0.59247128  0.41792685     0.16000
C1761       C  0.92023483  0.58411987  0.39835459     0.37600
C1762       C  0.81983563  0.65859567  0.34893407     0.37500
N1763       N  0.94070765  0.56958984  0.40889170    -0.42700
N1764       N  0.80063949  0.67526072  0.33902460    -0.42700
C1765       C  0.74459193  0.96472177  0.46410828     0.00900
C1766       C  0.71350207  0.97953325  0.46674520    -0.11000
C1767       C  0.71083196  0.51315906  0.46754177     0.03100
C1768       C  0.73975996  0.53240795  0.46619037     0.00800
C1769       C  0.77074154  0.51723097  0.46676112    -0.11000
C1770       C  0.77334178  0.98376782  0.46538145     0.03000
H1771       H  0.69125783  0.96497625  0.46621567     0.16000
H1772       H  0.79318758  0.53153108  0.46623864     0.16000
C1773       C  0.80587762  0.96948204  0.46424054     0.37600
C1774       C  0.67817691  0.52717503  0.46917051     0.37500
N1775       N  0.83188744  0.95789583  0.46331595    -0.42700
N1776       N  0.65195835  0.53828950  0.47073271    -0.42700
C1777       C  0.99189467  0.78455932  0.21219261     0.00900
C1778       C  0.52332738  0.77084425  0.21468091    -0.11000
C1779       C  0.52742265  0.73745849  0.21436488     0.03100
C1780       C  0.49964612  0.71717339  0.21190195     0.00800
C1781       C  0.96791244  0.73086589  0.21216165    -0.11000
C1782       C  0.96386219  0.76430339  0.21207315     0.03000
H1783       H  0.54497950  0.78621310  0.21518158     0.16000
H1784       H  0.94635619  0.71551813  0.21069411     0.16000
C1785       C  0.93076541  0.77722247  0.21152871     0.37600
C1786       C  0.56042862  0.72462756  0.21628942     0.37500
N1787       N  0.90418472  0.78747911  0.21126654    -0.42700
N1788       N  0.58685713  0.71433938  0.21803226    -0.42700
C1789       C  0.65037169  0.86541156  0.10934100     0.00900
C1790       C  0.64800630  0.86009711  0.13797876    -0.11000
C1791       C  0.61774345  0.86296243  0.15276828     0.03100
C1792       C  0.58868871  0.87204679  0.13902427     0.00800
C1793       C  0.59089763  0.87659246  0.11026703    -0.11000
C1794       C  0.62104026  0.87303884  0.09538691     0.03000
H1795       H  0.67000940  0.85383473  0.14904310     0.16000
H1796       H  0.56888672  0.88282632  0.09920347     0.16000
C1797       C  0.62072963  0.87693419  0.06575074     0.37600
C1798       C  0.61757745  0.85619213  0.18202529     0.37500
N1799       N  0.62047536  0.87984969  0.04198542    -0.42700
N1800       N  0.61742188  0.85052830  0.20542727    -0.42700
C1801       C  0.89997199  0.88481614  0.14032611     0.00900
C1802       C  0.87156622  0.87431315  0.15527627    -0.11000
C1803       C  0.84127253  0.86963152  0.14240678     0.03100
C1804       C  0.83877753  0.87549097  0.11376450     0.00800
C1805       C  0.86711701  0.88646629  0.09895067    -0.11000
C1806       C  0.89732824  0.89122649  0.11183155     0.03000
H1807       H  0.87306412  0.86919383  0.17713647     0.16000
H1808       H  0.86579443  0.89149665  0.07706826     0.16000
C1809       C  0.92486660  0.90332144  0.09521623     0.37600
C1810       C  0.81341378  0.85889629  0.15934937     0.37500
N1811       N  0.94682742  0.91312067  0.08183234    -0.42700
N1812       N  0.79124111  0.85036345  0.17314979    -0.42700
C1813       C  0.66628506  0.62275531  0.11139021     0.00900
C1814       C  0.66494205  0.62088933  0.14035003    -0.11000
C1815       C  0.63460998  0.61743232  0.15501742     0.03100
C1816       C  0.60452792  0.61620312  0.14064045     0.00800
C1817       C  0.60608697  0.61775479  0.11165213    -0.13800
C1818       C  0.63633236  0.62100958  0.09704641     0.03000
H1819       H  0.68772278  0.62180400  0.15160190     0.16000
H1820       H  0.58344507  0.61710417  0.10021089     0.16000
C1821       C  0.63559219  0.62382413  0.06732792     0.37600
C1822       C  0.63544834  0.61486592  0.18473414     0.37500
N1823       N  0.63524160  0.62613563  0.04351887    -0.42700
N1824       N  0.63628401  0.61273246  0.20853751    -0.42700
C1825       C  0.91514057  0.62384298  0.13575377     0.00900
C1826       C  0.88528181  0.62691252  0.15130217    -0.11000
C1827       C  0.85471562  0.63003032  0.13857813     0.03100
C1828       C  0.85325741  0.63005822  0.10940643     0.00800
C1829       C  0.88310390  0.62695258  0.09383701    -0.11000
C1830       C  0.91370814  0.62394321  0.10659314     0.03000
H1831       H  0.88568907  0.62701582  0.17365526     0.16000
H1832       H  0.88265036  0.62676750  0.07148788     0.16000
C1833       C  0.94301633  0.62073722  0.08902341     0.37600
C1834       C  0.82544242  0.63299369  0.15625559     0.37500
N1835       N  0.96643396  0.61818785  0.07484078    -0.42700
N1836       N  0.80207786  0.63538136  0.17052672    -0.42700
C1837       C  0.75587676  0.53334770  0.03683866     0.00900
C1838       C  0.78506141  0.51506717  0.03640057    -0.11000
C1839       C  0.78404133  0.98151091  0.03766388     0.03100
C1840       C  0.75324182  0.96554754  0.03930111     0.00800
C1841       C  0.72406830  0.98362888  0.03793579    -0.11000
C1842       C  0.72506173  0.51723195  0.03652408     0.03000
H1843       H  0.80884920  0.52713981  0.03665948     0.16000
H1844       H  0.70030458  0.97147819  0.03912394     0.16000
C1845       C  0.69399503  0.53432122  0.03682747     0.37600
C1846       C  0.81489262  0.96449602  0.04014689     0.37500
N1847       N  0.66888618  0.54764603  0.03691166    -0.42700
N1848       N  0.83980097  0.95121543  0.04232121    -0.42700
C1849       C  0.75070686  0.77907593  0.98443099     0.03300
C1850       C  0.75223703  0.77932549  0.51374666     0.03300
C1851       C  0.75438468  0.74978432  0.52772089    -0.17300
C1852       C  0.75421650  0.72003546  0.51384950     0.03300
C1853       C  0.75128331  0.71971193  0.98469418     0.03300
C1854       C  0.75012945  0.74924631  0.97056782    -0.17300
H1855       H  0.74847531  0.74898433  0.94823398     0.05300
H1856       H  0.75599481  0.74991808  0.55005705     0.05300
O1857       O  0.76996102  0.66464863  0.52169103    -0.56800
C1858       C  0.75848298  0.56812860  0.54291142     0.75800
O1859       O  0.79354496  0.63576029  0.60682671    -0.58000
C1860       C  0.75707207  0.69036596  0.53081788     0.75800
C1861       C  0.69884712  0.62617664  0.59649765     0.78200
Cd1862     Cd  0.76020020  0.63261743  0.56473074     1.37500
O1863       O  0.78164678  0.57858831  0.55738205    -0.56800
O1864       O  0.70276423  0.61713253  0.57171963    -0.55600
C1865       C  0.82145553  0.63229003  0.59449456     0.78100
O1866       O  0.72408992  0.63826290  0.60755300    -0.58000
O1867       O  0.73723002  0.58855012  0.53577147    -0.56400
O1868       O  0.74695451  0.68964076  0.55575438    -0.56400
O1869       O  0.82084724  0.63030436  0.56840822    -0.55600
O1870       O  0.76888565  0.90972718  0.53553574    -0.56800
C1871       C  0.75088813  0.80911394  0.53100177     0.75800
O1872       O  0.78069834  0.86089386  0.60959701    -0.58000
C1873       C  0.75066013  0.93117671  0.54662204     0.75800
C1874       C  0.68364548  0.86402573  0.59499063     0.78200
Cd1875     Cd  0.74799482  0.86590275  0.56672161     1.37500
O1876       O  0.73622456  0.83447166  0.52392738    -0.56800
O1877       O  0.68780189  0.87174798  0.56988374    -0.55600
C1878       C  0.80748885  0.87124198  0.59850302     0.78100
O1879       O  0.70963821  0.85589197  0.60730774    -0.58000
O1880       O  0.76370591  0.81006301  0.55446919    -0.56400
O1881       O  0.73049207  0.92199815  0.56541877    -0.56400
O1882       O  0.80634549  0.87818082  0.57314245    -0.55600
O1883       O  0.48237515  0.66173697  0.71241873    -0.56800
C1884       C  0.50407188  0.56058632  0.71705466     0.75800
O1885       O  0.97519899  0.62130736  0.63900390    -0.58000
C1886       C  0.50325117  0.68277345  0.70469991     0.75800
C1887       C  0.57125749  0.61508061  0.65493036     0.78200
Cd1888     Cd  0.50674653  0.61799357  0.68271061     1.37500
O1889       O  0.51531819  0.58699009  0.72566543    -0.56800
O1890       O  0.56758605  0.61869818  0.68078312    -0.55600
C1891       C  0.94676994  0.62102287  0.65086974     0.78100
O1892       O  0.54478037  0.61145617  0.64177292    -0.58000
O1893       O  0.49556660  0.56046076  0.69212436    -0.56400
O1894       O  0.52638508  0.67327366  0.68864969    -0.56400
O1895       O  0.94656219  0.61854194  0.67689790    -0.55600
O1896       O  0.97206578  0.82863076  0.68603485    -0.56800
C1897       C  0.99649459  0.94179397  0.71810544     0.75800
O1898       O  0.53049451  0.88652499  0.64184906    -0.58000
C1899       C  0.98995853  0.81904570  0.70526951     0.75800
C1900       C  0.93188650  0.88705311  0.65488208     0.78200
Cd1901     Cd  0.99311401  0.88390446  0.68410364     1.37500
O1902       O  0.98224132  0.91651433  0.72676414    -0.56800
O1903       O  0.93263721  0.88644577  0.68100055    -0.55600
C1904       C  0.55602178  0.87665060  0.65388847     0.78100
O1905       O  0.95977324  0.88830259  0.64216871    -0.58000
O1906       O  0.00817828  0.94050797  0.69359863    -0.56400
O1907       O  0.00790694  0.84003148  0.71644993    -0.56400
O1908       O  0.55206661  0.87090261  0.67938751    -0.55600
C1909       C  0.00127871  0.53108282  0.73454242     0.03300
C1910       C  0.99939209  0.53145409  0.76397842     0.03300
C1911       C  0.99854042  0.00188049  0.77816845    -0.17300
C1912       C  0.99880555  0.97203411  0.76437163     0.03300
C1913       C  0.99879693  0.97172938  0.73500133     0.03300
C1914       C  0.50053733  0.00121485  0.72078994    -0.17300
H1915       H  0.50123466  0.00088165  0.69837034     0.05300
H1916       H  0.99787540  0.00209209  0.80058637     0.05300
O1917       O  0.71557412  0.57939705  0.94637952    -0.56800
C1918       C  0.74838990  0.68957047  0.96820194     0.75800
O1919       O  0.77992416  0.63845252  0.89307072    -0.58000
C1920       C  0.73906917  0.56717769  0.95933980     0.75800
C1921       C  0.68266994  0.63252089  0.90417726     0.78200
Cd1922     Cd  0.74332718  0.63097421  0.93516032     1.37500
O1923       O  0.73565020  0.66404827  0.97786919    -0.56800
O1924       O  0.68283574  0.63798492  0.92991007    -0.55600
C1925       C  0.80522427  0.62491440  0.90262966     0.78100
O1926       O  0.71083365  0.62789065  0.89263056    -0.58000
O1927       O  0.75800859  0.68822339  0.94316310    -0.56400
O1928       O  0.76337193  0.58555407  0.96358061    -0.56400
O1929       O  0.80147962  0.61363101  0.92676930    -0.55600
O1930       O  0.76456234  0.92271010  0.93473153    -0.56800
C1931       C  0.75022767  0.80879970  0.96730213     0.75800
O1932       O  0.71517647  0.86905235  0.89103332    -0.58000
C1933       C  0.74661949  0.93073393  0.95538908     0.75800
C1934       C  0.81214147  0.86321830  0.90342602     0.78200
Cd1935     Cd  0.74904347  0.86616295  0.93317024     1.37500
O1936       O  0.76224584  0.83522571  0.97512319    -0.56800
O1937       O  0.80908052  0.87080148  0.92869244    -0.55600
C1938       C  0.68756322  0.87043920  0.90417489     0.78100
O1939       O  0.78560009  0.85559187  0.89166534    -0.58000
O1940       O  0.73821728  0.80883802  0.94347524    -0.56400
O1941       O  0.72998930  0.90854292  0.96706772    -0.56400
O1942       O  0.68889363  0.86849570  0.93015195    -0.55600
O1943       O  0.01886541  0.66338607  0.78374916    -0.56800
C1944       C  0.99816375  0.56144281  0.78104495     0.75800
O1945       O  0.52960973  0.62012146  0.85843437    -0.58000
C1946       C  0.99885917  0.68443358  0.79301299     0.75800
C1947       C  0.93383670  0.61696343  0.84467124     0.78200
Cd1948     Cd  0.99732695  0.61953955  0.81511216     1.37500
O1949       O  0.98701285  0.58784090  0.77247401    -0.56800
O1950       O  0.93638653  0.62091151  0.81877788    -0.55600
C1951       C  0.55789052  0.62255047  0.84655116     0.78100
O1952       O  0.96080258  0.61313969  0.85701233    -0.58000
O1953       O  0.00781841  0.56173514  0.80563841    -0.56400
O1954       O  0.97772037  0.67504612  0.81093484    -0.56400
O1955       O  0.55798217  0.62281079  0.82041525    -0.55600
O1956       O  0.53021526  0.83258496  0.80652226    -0.56800
C1957       C  0.50033106  0.94234034  0.78157444     0.75800
O1958       O  0.96615176  0.88897941  0.85770574    -0.58000
C1959       C  0.50770540  0.82097985  0.79200822     0.75800
C1960       C  0.56376541  0.88571733  0.84654129     0.78200
Cd1961     Cd  0.50318313  0.88468623  0.81578834     1.37500
O1962       O  0.51252581  0.91624887  0.77264363    -0.56800
O1963       O  0.56280995  0.89164241  0.82096950    -0.55600
C1964       C  0.94062932  0.87761853  0.84657378     0.78100
O1965       O  0.53590329  0.88154901  0.85883284    -0.58000
O1966       O  0.49022496  0.94202020  0.80655965    -0.56400
O1967       O  0.48435026  0.83982531  0.78637239    -0.56400
O1968       O  0.94424263  0.86991811  0.82139205    -0.55600
C1969       C  0.00126908  0.71875787  0.78530050     0.00900
C1970       C  0.53256463  0.73343322  0.78429607    -0.11000
C1971       C  0.53563222  0.76700210  0.78411244     0.03100
C1972       C  0.50693181  0.78640923  0.78470599     0.00800
C1973       C  0.97590004  0.77158891  0.78264530    -0.11000
C1974       C  0.97283369  0.73812904  0.78319141     0.03000
H1975       H  0.55461075  0.71874598  0.78540234     0.16000
H1976       H  0.95368095  0.78613508  0.78247317     0.16000
C1977       C  0.94008962  0.72439906  0.78217193     0.37600
C1978       C  0.56843493  0.78079862  0.78376388     0.37500
N1979       N  0.91370407  0.71373079  0.78120732    -0.42700
N1980       N  0.59478304  0.79173295  0.78333518    -0.42700
C1981       C  0.65554281  0.87452577  0.88996132     0.00900
C1982       C  0.65589314  0.87614059  0.86098621    -0.11000
C1983       C  0.62666511  0.88022214  0.84652360     0.03100
C1984       C  0.59576420  0.88285397  0.86104007     0.00800
C1985       C  0.59539443  0.88134113  0.89004563    -0.11000
C1986       C  0.62469689  0.87746873  0.90453557     0.03000
H1987       H  0.67919211  0.87405985  0.84940575     0.16000
H1988       H  0.57205089  0.88330145  0.90157479     0.16000
C1989       C  0.62211829  0.87706223  0.93436519     0.37600
C1990       C  0.62939459  0.88068413  0.81671311     0.37500
N1991       N  0.62018934  0.87688059  0.95826931    -0.42700
N1992       N  0.63164041  0.88098249  0.79282540    -0.42700
C1993       C  0.90817494  0.87327119  0.86178634     0.00900
C1994       C  0.88211170  0.85773130  0.84836050    -0.11000
C1995       C  0.85093778  0.85332216  0.86148026     0.03100
C1996       C  0.84510850  0.86471819  0.88872418     0.00800
C1997       C  0.87135044  0.87961173  0.90228931    -0.11000
C1998       C  0.90238934  0.88412740  0.88919542     0.03000
H1999       H  0.88600360  0.84892485  0.82746313     0.16000
H2000       H  0.86748147  0.88859753  0.92314107     0.16000
C2001       C  0.92727878  0.90093427  0.90437484     0.37600
C2002       C  0.82577376  0.83661640  0.84649168     0.37500
N2003       N  0.94703887  0.91457860  0.91662483    -0.42700
N2004       N  0.80573835  0.82309365  0.83444174    -0.42700
C2005       C  0.65104449  0.63081561  0.88886146     0.00900
C2006       C  0.62073250  0.63518006  0.90351587    -0.11000
C2007       C  0.59024413  0.63244859  0.89046468     0.03100
C2008       C  0.58939348  0.62515842  0.86191697     0.00800
C2009       C  0.61968892  0.62104708  0.84724628    -0.11000
C2010       C  0.65014303  0.62378016  0.86026110     0.03000
H2011       H  0.62072261  0.64067293  0.92542268     0.16000
H2012       H  0.61969478  0.61552933  0.82534430     0.16000
C2013       C  0.67995323  0.61918155  0.84353645     0.37600
C2014       C  0.56038421  0.63792972  0.90691309     0.37500
N2015       N  0.70389661  0.61554816  0.83018488    -0.42700
N2016       N  0.53648229  0.64238091  0.92012553    -0.42700
C2017       C  0.90095569  0.61778239  0.85950679     0.00900
C2018       C  0.87512993  0.63526088  0.84783561    -0.11000
C2019       C  0.84403701  0.63815516  0.86137573     0.03100
C2020       C  0.83768091  0.62247391  0.88693012     0.00800
C2021       C  0.86350626  0.60460754  0.89838653    -0.11000
C2022       C  0.89487942  0.60246566  0.88516383     0.03000
H2023       H  0.87952793  0.64761052  0.82841469     0.16000
H2024       H  0.85938385  0.59247396  0.91792917     0.16000
C2025       C  0.92023833  0.58412379  0.89835715     0.37600
C2026       C  0.81983555  0.65859095  0.84893260     0.37500
N2027       N  0.94071193  0.56959539  0.90889482    -0.42700
N2028       N  0.80063877  0.67525438  0.83902201    -0.42700
C2029       C  0.74459317  0.96472042  0.96410935     0.00900
C2030       C  0.71350326  0.97953166  0.96674713    -0.11000
C2031       C  0.71083303  0.51315777  0.96754290     0.03100
C2032       C  0.73976099  0.53240671  0.96619056     0.00800
C2033       C  0.77074267  0.51722972  0.96676011    -0.11000
C2034       C  0.77334294  0.98376668  0.96538156     0.03000
H2035       H  0.69125914  0.96497453  0.96621824     0.16000
H2036       H  0.79318869  0.53152980  0.96623689     0.16000
C2037       C  0.80587892  0.96948128  0.96423932     0.37600
C2038       C  0.67817789  0.52717355  0.96917288     0.37500
N2039       N  0.83188890  0.95789538  0.96331360    -0.42700
N2040       N  0.65195922  0.53828762  0.97073612    -0.42700
C2041       C  0.99189752  0.78456025  0.71219281     0.00900
C2042       C  0.52332973  0.77084505  0.71468264    -0.11000
C2043       C  0.52742479  0.73745921  0.71436669     0.03100
C2044       C  0.49964821  0.71717426  0.71190321     0.00800
C2045       C  0.96791480  0.73086712  0.71216193    -0.11000
C2046       C  0.96386490  0.76430460  0.71207328     0.03000
H2047       H  0.54498176  0.78621386  0.71518367     0.16000
H2048       H  0.94635838  0.71551961  0.71069436     0.16000
C2049       C  0.93076828  0.77722408  0.71152868     0.37600
C2050       C  0.56043066  0.72462810  0.71629168     0.37500
N2051       N  0.90418781  0.78748125  0.71126645    -0.42700
N2052       N  0.58685902  0.71433974  0.71803486    -0.42700
C2053       C  0.65037187  0.86541027  0.60934144     0.00900
C2054       C  0.64800692  0.86009776  0.63797947    -0.11000
C2055       C  0.61774419  0.86296343  0.65276907     0.03100
C2056       C  0.58868914  0.87204645  0.63902485     0.00800
C2057       C  0.59089754  0.87658965  0.61026731    -0.11000
C2058       C  0.62104001  0.87303539  0.59538711     0.03000
H2059       H  0.67001039  0.85383671  0.64904397     0.16000
H2060       H  0.56888624  0.88282208  0.59920355     0.16000
C2061       C  0.62072879  0.87692766  0.56575065     0.37600
C2062       C  0.61757852  0.85619465  0.68202636     0.37500
N2063       N  0.62047397  0.87984083  0.54198515    -0.42700
N2064       N  0.61742316  0.85053201  0.70542852    -0.42700
C2065       C  0.89997133  0.88481629  0.64032704     0.00900
C2066       C  0.87156543  0.87431388  0.65527748    -0.11000
C2067       C  0.84127136  0.86963311  0.64240822     0.03100
C2068       C  0.83877626  0.87549245  0.61376596     0.00800
C2069       C  0.86711578  0.88646738  0.59895196    -0.11000
C2070       C  0.89732724  0.89122697  0.61183259     0.03000
H2071       H  0.87306344  0.86919464  0.67713759     0.16000
H2072       H  0.86579312  0.89149773  0.57706965     0.16000
C2073       C  0.92486551  0.90332157  0.59521690     0.37600
C2074       C  0.81341219  0.85889948  0.65935113     0.37500
N2075       N  0.94682602  0.91312049  0.58183254    -0.42700
N2076       N  0.79123912  0.85036807  0.67315179    -0.42700
C2077       C  0.66628395  0.62275778  0.61138990     0.00900
C2078       C  0.66494157  0.62089023  0.64034969    -0.11000
C2079       C  0.63460971  0.61743272  0.65501731     0.03100
C2080       C  0.60452736  0.61620514  0.64064069     0.00800
C2081       C  0.60608585  0.61775862  0.61165243    -0.13800
C2082       C  0.63633103  0.62101327  0.59704644     0.03000
H2083       H  0.68772238  0.62180363  0.65160113     0.16000
H2084       H  0.58344380  0.61710896  0.60021146     0.16000
C2085       C  0.63559040  0.62382805  0.56732796     0.37600
C2086       C  0.63544882  0.61486370  0.68473384     0.37500
N2087       N  0.63523925  0.62613937  0.54351895    -0.42700
N2088       N  0.63628531  0.61272798  0.70853702    -0.42700
C2089       C  0.91514047  0.62384399  0.63575329     0.00900
C2090       C  0.88528189  0.62691477  0.65130178    -0.11000
C2091       C  0.85471563  0.63003264  0.63857783     0.03100
C2092       C  0.85325705  0.63005917  0.60940619     0.00800
C2093       C  0.88310331  0.62695220  0.59383663    -0.11000
C2094       C  0.91370766  0.62394294  0.60659267     0.03000
H2095       H  0.88568934  0.62701906  0.67365481     0.16000
H2096       H  0.88264948  0.62676602  0.57148767     0.16000
C2097       C  0.94301550  0.62073595  0.58902268     0.37600
C2098       C  0.82544274  0.63299781  0.65625541     0.37500
N2099       N  0.96643262  0.61818595  0.57483957    -0.42700
N2100       N  0.80207845  0.63538696  0.67052664    -0.42700
C2101       C  0.75587738  0.53334737  0.53684009     0.00900
C2102       C  0.78506207  0.51506696  0.53640295    -0.11000
C2103       C  0.78404192  0.98151059  0.53766461     0.03100
C2104       C  0.75324237  0.96554722  0.53930061     0.00800
C2105       C  0.72406896  0.98362860  0.53793453    -0.11000
C2106       C  0.72506250  0.51723158  0.53652394     0.03000
H2107       H  0.80884985  0.52713976  0.53666308     0.16000
H2108       H  0.70030523  0.97147792  0.53912175     0.16000
C2109       C  0.69399583  0.53432087  0.53682640     0.37600
C2110       C  0.81489305  0.96449549  0.54014806     0.37500
N2111       N  0.66888710  0.54764582  0.53690990    -0.42700
N2112       N  0.83980117  0.95121463  0.54232260    -0.42700
loop_ 
_geom_bond_atom_site_label_1 
_geom_bond_atom_site_label_2 
_geom_bond_distance 
_geom_bond_site_symmetry_2 
_ccdc_geom_bond_type 
C1            C6   1.412       .  A
C1          C266   1.423       .  A
C1           C83   1.492       .  S
C2            C3   1.409       .  A
C2          C265   1.423   1_554  A
C2           C23   1.495       .  S
C3            C4   1.409       .  A
C3            H8   1.085       .  S
C4          C269   1.420   1_554  A
C4           C12   1.492       .  S
C5            C6   1.410       .  A
C5          C268   1.420       .  A
C5           C70   1.493       .  S
C6            H7   1.085       .  S
O9           C12   1.265       .  A
O9          Cd14   2.497       .  S
C10         C253   1.482       .  S
C10          O19   1.266       .  A
C10          O15   1.263       .  A
O11          C17   1.269       .  A
O11         Cd14   2.481       .  S
C12          O20   1.263       .  A
C13         C229   1.488       .  S
C13          O18   1.270       .  A
C13          O16   1.262       .  A
Cd14         O21   2.466       .  S
Cd14         O20   2.478       .  S
Cd14         O19   2.503       .  S
Cd14         O15   2.435       .  S
Cd14         O18   2.510       .  S
Cd14         O16   2.423       .  S
C17         C244   1.496       .  S
C17          O21   1.267       .  A
O22          C25   1.267       .  A
O22         Cd27   2.500       .  S
C23          O32   1.264       .  A
C23          O28   1.265       .  A
O24          C30   1.269       .  A
O24         Cd27   2.504       .  S
C25         C256   1.478       .  S
C25          O33   1.263       .  A
C26         C205   1.496       .  S
C26          O31   1.271       .  A
C26          O29   1.264       .  A
Cd27         O34   2.442       .  S
Cd27         O33   2.444       .  S
Cd27         O32   2.478       .  S
Cd27         O28   2.506       .  S
Cd27         O31   2.501       .  S
Cd27         O29   2.446       .  S
C30         C220   1.494       .  S
C30          O34   1.264       .  A
O35          C38   1.265   1_655  A
O35         Cd40   2.504   1_655  S
C36        C1117   1.496       .  S
C36          O45   1.265   1_455  A
C36          O41   1.264       .  A
O37          C43   1.269       .  A
O37       Cd1096   2.508       .  S
C38         C196   1.480   1_455  S
C38          O46   1.261       .  A
C39         C232   1.494       .  S
C39          O44   1.271       .  A
C39          O42   1.265       .  A
Cd40         O46   2.454       .  S
Cd40         O45   2.478   1_455  S
Cd40         O41   2.483       .  S
Cd40         O44   2.486       .  S
Cd40         O42   2.458       .  S
Cd40       O1093   2.508   1_455  S
Cd40       O1103   2.458   1_455  S
C43         C241   1.497       .  S
C43          O47   1.264       .  A
O47       Cd1096   2.458       .  S
O48          C51   1.262       .  A
O48         Cd53   2.454       .  S
C49          C65   1.494       .  S
C49          O58   1.265       .  A
C49          O54   1.266       .  A
O50          C56   1.270       .  A
O50       Cd1109   2.509   1_455  S
C51         C193   1.478       .  S
C51          O59   1.266       .  A
C52         C217   1.491       .  S
C52          O57   1.269       .  A
C52          O55   1.266       .  A
Cd53         O59   2.494       .  S
Cd53         O58   2.480       .  S
Cd53         O54   2.498       .  S
Cd53         O57   2.478       .  S
Cd53         O55   2.456       .  S
Cd53       O1106   2.509       .  S
Cd53       O1116   2.448       .  S
C56         C208   1.497       .  S
C56          O60   1.263       .  A
O60       Cd1109   2.448   1_455  S
C61          C62   1.425       .  A
C61        C1650   1.411       .  A
C61        C1092   1.496       .  S
C62         C591   1.411       .  A
C62          C96   1.497       .  S
C63          C64   1.410       .  A
C63         C590   1.411       .  A
C63          H68   1.085       .  S
C64          C65   1.422       .  A
C64        C1165   1.495       .  S
C65        C1122   1.409       .  A
C66        C1645   1.411       .  A
C66        C1121   1.409   1_455  A
C66          H67   1.085       .  S
O69          C72   1.262       .  A
O69         Cd74   2.476       .  S
C70          O79   1.263       .  A
C70          O75   1.265       .  A
O71          C77   1.269       .  A
O71         Cd74   2.501       .  S
C72         C184   1.487       .  S
C72          O80   1.266       .  A
C73         C157   1.499       .  S
C73          O78   1.268       .  A
C73          O76   1.266       .  A
Cd74         O81   2.482       .  S
Cd74         O80   2.492       .  S
Cd74         O79   2.489       .  S
Cd74         O75   2.494       .  S
Cd74         O78   2.479       .  S
Cd74         O76   2.484       .  S
C77         C172   1.500       .  S
C77          O81   1.265       .  A
O82          C85   1.262       .  A
O82         Cd87   2.438       .  S
C83          O92   1.265       .  A
C83          O88   1.265       .  A
O84          C90   1.269       .  A
O84         Cd87   2.494       .  S
C85         C181   1.478       .  S
C85          O93   1.266       .  A
C86         C148   1.493       .  S
C86          O91   1.270       .  A
C86          O89   1.265       .  A
Cd87         O94   2.442       .  S
Cd87         O93   2.514       .  S
Cd87         O92   2.476       .  S
Cd87         O88   2.479       .  S
Cd87         O91   2.497       .  S
Cd87         O89   2.437       .  S
C90         C133   1.494       .  S
C90          O94   1.263       .  A
O95          C98   1.266       .  A
O95        Cd100   2.515       .  S
C96         O105   1.264       .  A
C96         O101   1.264       .  A
O97         C103   1.268       .  A
O97       Cd1156   2.504   1_455  S
C98         C121   1.481       .  S
C98         O106   1.261       .  A
C99         C169   1.492       .  S
C99         O104   1.269       .  A
C99         O102   1.266       .  A
Cd100       O106   2.456       .  S
Cd100       O105   2.485       .  S
Cd100       O101   2.494       .  S
Cd100       O104   2.487       .  S
Cd100       O102   2.465       .  S
Cd100      O1153   2.504       .  S
Cd100      O1163   2.477       .  S
C103        C160   1.498       .  S
C103        O107   1.265       .  A
O107      Cd1156   2.477   1_455  S
O108        C111   1.262       .  A
O108       Cd113   2.466       .  S
C109       C1120   1.495   1_455  S
C109        O118   1.265   1_455  A
C109        O114   1.264       .  A
O110        C116   1.269       .  A
O110      Cd1169   2.491       .  S
C111        C124   1.483       .  S
C111        O119   1.265   1_455  A
C112        C136   1.495       .  S
C112        O117   1.270       .  A
C112        O115   1.265       .  A
Cd113       O119   2.480   1_455  S
Cd113       O118   2.490   1_455  S
Cd113       O114   2.489       .  S
Cd113       O117   2.506       .  S
Cd113       O115   2.448       .  S
Cd113      O1166   2.491   1_455  S
Cd113      O1176   2.467   1_455  S
C116        C145   1.496       .  S
C116        O120   1.264       .  A
O120      Cd1169   2.467       .  S
C121        C126   1.412       .  A
C121       C1178   1.404       .  A
C122        C123   1.404       .  A
C122       C1177   1.404       .  A
C122        H127   1.084       .  S
C123        C124   1.415       .  A
C123        C130   1.444       .  S
C124       C1181   1.403   1_455  A
C125        C126   1.399       .  A
C125       C1180   1.403       .  A
C125        H128   1.084       .  S
C126        C129   1.443       .  S
C129        N131   1.157       .  T
C130        N132   1.157       .  T
C133        C134   1.404       .  A
C133        C138   1.419       .  A
C134        C135   1.402       .  A
C134        H139   1.085       .  S
C135        C136   1.419       .  A
C135        C142   1.444       .  S
C136        C137   1.405       .  A
C137        C138   1.405       .  A
C137        H140   1.085       .  S
C138        C141   1.445       .  S
C141        N143   1.158       .  T
C142        N144   1.157       .  T
C145        C146   1.411       .  A
C145        C150   1.414       .  A
C146        C147   1.406       .  A
C146        H151   1.083       .  S
C147        C148   1.414       .  A
C147        C154   1.445       .  S
C148        C149   1.407       .  A
C149        C150   1.401       .  A
C149        H152   1.083       .  S
C150        C153   1.444       .  S
C153        N155   1.157       .  T
C154        N156   1.158       .  T
C157        C158   1.409       .  A
C157        C162   1.416       .  A
C158        C159   1.406       .  A
C158        H163   1.085       .  S
C159        C160   1.416       .  A
C159        C166   1.444       .  S
C160        C161   1.407       .  A
C161        C162   1.404       .  A
C161        H164   1.085       .  S
C162        C165   1.444       .  S
C165        N167   1.157       .  T
C166        N168   1.157       .  T
C169        C170   1.407       .  A
C169        C174   1.412       .  A
C170        C171   1.405       .  A
C170        H175   1.082       .  S
C171        C172   1.416       .  A
C171        C178   1.444       .  S
C172        C173   1.411       .  A
C173        C174   1.406       .  A
C173        H176   1.082       .  S
C174        C177   1.444       .  S
C177        N179   1.157       .  T
C178        N180   1.157       .  T
C181        C182   1.403       .  A
C181        C186   1.409       .  A
C182        C711   1.405       .  A
C182        H187   1.085       .  S
C183        C184   1.417       .  A
C183        C710   1.405   1_545  A
C183        C190   1.444       .  S
C184        C185   1.405       .  A
C185        C714   1.399   1_545  A
C185        H188   1.084       .  S
C186        C713   1.399       .  A
C186        C189   1.444       .  S
C189        N191   1.157       .  T
C190        N192   1.157       .  T
C193        C198   1.412       .  A
C193       C1250   1.402       .  A
C194        C195   1.401       .  A
C194       C1249   1.402   1_455  A
C194        H199   1.085       .  S
C195        C196   1.412   1_455  A
C195        C202   1.444       .  S
C196       C1253   1.404       .  A
C197        C198   1.403       .  A
C197       C1252   1.404       .  A
C197        H200   1.084       .  S
C198        C201   1.444       .  S
C201        N203   1.157       .  T
C202        N204   1.157       .  T
C205        C206   1.405       .  A
C205        C210   1.419       .  A
C206        C207   1.404       .  A
C206        H211   1.085       .  S
C207        C208   1.420       .  A
C207        C214   1.445       .  S
C208        C209   1.406       .  A
C209        C210   1.404       .  A
C209        H212   1.084       .  S
C210        C213   1.445       .  S
C213        N215   1.158       .  T
C214        N216   1.158       .  T
C217        C218   1.408       .  A
C217        C222   1.413       .  A
C218        C219   1.404       .  A
C218        H223   1.083       .  S
C219        C220   1.415       .  A
C219        C226   1.444       .  S
C220        C221   1.409       .  A
C221        C222   1.402       .  A
C221        H224   1.083       .  S
C222        C225   1.444       .  S
C225        N227   1.157       .  T
C226        N228   1.157       .  T
C229        C230   1.404       .  A
C229        C234   1.416       .  A
C230        C231   1.405       .  A
C230        H235   1.085       .  S
C231        C232   1.420       .  A
C231        C238   1.444       .  S
C232        C233   1.405       .  A
C233        C234   1.400       .  A
C233        H236   1.084       .  S
C234        C237   1.445       .  S
C237        N239   1.157       .  T
C238        N240   1.158       .  T
C241        C242   1.409       .  A
C241        C246   1.415       .  A
C242        C243   1.404       .  A
C242        H247   1.083       .  S
C243        C244   1.415       .  A
C243        C250   1.444       .  S
C244        C245   1.409       .  A
C245        C246   1.405       .  A
C245        H248   1.083       .  S
C246        C249   1.444       .  S
C249        N251   1.157       .  T
C250        N252   1.157       .  T
C253        C254   1.405       .  A
C253        C258   1.415       .  A
C254        C783   1.400   1_545  A
C254        H259   1.085       .  S
C255        C256   1.411       .  A
C255        C782   1.400       .  A
C255        C262   1.444       .  S
C256        C257   1.404       .  A
C257        C786   1.402       .  A
C257        H260   1.085       .  S
C258        C785   1.402   1_545  A
C258        C261   1.444       .  S
C261        N263   1.157       .  T
C262        N264   1.157       .  T
C265        C270   1.412       .  A
C265        C347   1.492       .  S
C266        C267   1.409       .  A
C266        C287   1.495       .  S
C267        C268   1.409       .  A
C267        H272   1.085       .  S
C268        C276   1.492       .  S
C269        C270   1.410       .  A
C269        C334   1.493       .  S
C270        H271   1.085       .  S
O273        C276   1.265       .  A
O273       Cd278   2.497       .  S
C274        C517   1.482       .  S
C274        O283   1.266       .  A
C274        O279   1.263       .  A
O275        C281   1.269       .  A
O275       Cd278   2.481       .  S
C276        O284   1.263       .  A
C277        C493   1.488       .  S
C277        O282   1.270       .  A
C277        O280   1.262       .  A
Cd278       O285   2.466       .  S
Cd278       O284   2.478       .  S
Cd278       O283   2.503       .  S
Cd278       O279   2.435       .  S
Cd278       O282   2.510       .  S
Cd278       O280   2.423       .  S
C281        C508   1.496       .  S
C281        O285   1.267       .  A
O286        C289   1.267       .  A
O286       Cd291   2.500       .  S
C287        O296   1.264       .  A
C287        O292   1.265       .  A
O288        C294   1.269       .  A
O288       Cd291   2.504       .  S
C289        C520   1.478       .  S
C289        O297   1.263       .  A
C290        C469   1.496       .  S
C290        O295   1.271       .  A
C290        O293   1.264       .  A
Cd291       O298   2.442       .  S
Cd291       O297   2.444       .  S
Cd291       O296   2.478       .  S
Cd291       O292   2.506       .  S
Cd291       O295   2.501       .  S
Cd291       O293   2.446       .  S
C294        C484   1.494       .  S
C294        O298   1.264       .  A
O299        C302   1.265   1_655  A
O299       Cd304   2.504   1_655  S
C300       C1381   1.496       .  S
C300        O309   1.265   1_455  A
C300        O305   1.264       .  A
O301        C307   1.269       .  A
O301      Cd1360   2.508       .  S
C302        C460   1.480   1_455  S
C302        O310   1.261       .  A
C303        C496   1.494       .  S
C303        O308   1.271       .  A
C303        O306   1.265       .  A
Cd304      O1357   2.508   1_455  S
Cd304      O1367   2.458   1_455  S
Cd304       O310   2.454       .  S
Cd304       O309   2.478   1_455  S
Cd304       O305   2.483       .  S
Cd304       O308   2.486       .  S
Cd304       O306   2.458       .  S
C307        C505   1.497       .  S
C307        O311   1.264       .  A
O311      Cd1360   2.458       .  S
O312        C315   1.262       .  A
O312       Cd317   2.454       .  S
C313        C329   1.494       .  S
C313        O322   1.265       .  A
C313        O318   1.266       .  A
O314        C320   1.270       .  A
O314      Cd1373   2.509   1_455  S
C315        C457   1.478       .  S
C315        O323   1.266       .  A
C316        C481   1.491       .  S
C316        O321   1.269       .  A
C316        O319   1.266       .  A
Cd317      O1370   2.509       .  S
Cd317      O1380   2.448       .  S
Cd317       O323   2.494       .  S
Cd317       O322   2.480       .  S
Cd317       O318   2.498       .  S
Cd317       O321   2.478       .  S
Cd317       O319   2.456       .  S
C320        C472   1.497       .  S
C320        O324   1.263       .  A
O324      Cd1373   2.448   1_455  S
C325        C326   1.425       .  A
C325       C1914   1.411       .  A
C325       C1356   1.496       .  S
C326        C855   1.411       .  A
C326        C360   1.497       .  S
C327        C854   1.411       .  A
C327        C328   1.410       .  A
C327        H332   1.085       .  S
C328        C329   1.422       .  A
C328       C1429   1.495       .  S
C329       C1386   1.409       .  A
C330       C1909   1.411       .  A
C330       C1385   1.409   1_455  A
C330        H331   1.085       .  S
O333        C336   1.262       .  A
O333       Cd338   2.476       .  S
C334        O343   1.263       .  A
C334        O339   1.265       .  A
O335        C341   1.269       .  A
O335       Cd338   2.501       .  S
C336        C448   1.487       .  S
C336        O344   1.266       .  A
C337        C421   1.499       .  S
C337        O342   1.268       .  A
C337        O340   1.266       .  A
Cd338       O345   2.482       .  S
Cd338       O344   2.492       .  S
Cd338       O343   2.489       .  S
Cd338       O339   2.494       .  S
Cd338       O342   2.479       .  S
Cd338       O340   2.484       .  S
C341        C436   1.500       .  S
C341        O345   1.265       .  A
O346        C349   1.262       .  A
O346       Cd351   2.438       .  S
C347        O356   1.265       .  A
C347        O352   1.265       .  A
O348        C354   1.269       .  A
O348       Cd351   2.494       .  S
C349        C445   1.478       .  S
C349        O357   1.266       .  A
C350        C412   1.493       .  S
C350        O355   1.270       .  A
C350        O353   1.265       .  A
Cd351       O358   2.442       .  S
Cd351       O357   2.514       .  S
Cd351       O356   2.476       .  S
Cd351       O352   2.479       .  S
Cd351       O355   2.497       .  S
Cd351       O353   2.437       .  S
C354        C397   1.494       .  S
C354        O358   1.263       .  A
O359        C362   1.266       .  A
O359       Cd364   2.515       .  S
C360        O369   1.264       .  A
C360        O365   1.264       .  A
O361        C367   1.268       .  A
O361      Cd1420   2.504   1_455  S
C362        C385   1.481       .  S
C362        O370   1.261       .  A
C363        C433   1.492       .  S
C363        O368   1.269       .  A
C363        O366   1.266       .  A
Cd364      O1417   2.504       .  S
Cd364      O1427   2.477       .  S
Cd364       O370   2.456       .  S
Cd364       O369   2.485       .  S
Cd364       O365   2.494       .  S
Cd364       O368   2.487       .  S
Cd364       O366   2.465       .  S
C367        C424   1.498       .  S
C367        O371   1.265       .  A
O371      Cd1420   2.477   1_455  S
O372        C375   1.262       .  A
O372       Cd377   2.465       .  S
C373       C1384   1.495   1_455  S
C373        O382   1.265   1_455  A
C373        O378   1.264       .  A
O374        C380   1.269       .  A
O374      Cd1433   2.491       .  S
C375        C388   1.483       .  S
C375        O383   1.265   1_455  A
C376        C400   1.495       .  S
C376        O381   1.270       .  A
C376        O379   1.265       .  A
Cd377      O1430   2.491   1_455  S
Cd377      O1440   2.467   1_455  S
Cd377       O383   2.480   1_455  S
Cd377       O382   2.490   1_455  S
Cd377       O378   2.489       .  S
Cd377       O381   2.506       .  S
Cd377       O379   2.448       .  S
C380        C409   1.496       .  S
C380        O384   1.264       .  A
O384      Cd1433   2.467       .  S
C385       C1442   1.404       .  A
C385        C390   1.412       .  A
C386       C1441   1.404       .  A
C386        C387   1.404       .  A
C386        H391   1.084       .  S
C387        C388   1.415       .  A
C387        C394   1.444       .  S
C388       C1445   1.403   1_455  A
C389       C1444   1.403       .  A
C389        C390   1.399       .  A
C389        H392   1.084       .  S
C390        C393   1.443       .  S
C393        N395   1.157       .  T
C394        N396   1.157       .  T
C397        C398   1.404       .  A
C397        C402   1.419       .  A
C398        C399   1.402       .  A
C398        H403   1.085       .  S
C399        C400   1.419       .  A
C399        C406   1.444       .  S
C400        C401   1.405       .  A
C401        C402   1.405       .  A
C401        H404   1.085       .  S
C402        C405   1.445       .  S
C405        N407   1.158       .  T
C406        N408   1.157       .  T
C409        C410   1.411       .  A
C409        C414   1.414       .  A
C410        C411   1.406       .  A
C410        H415   1.083       .  S
C411        C412   1.414       .  A
C411        C418   1.445       .  S
C412        C413   1.407       .  A
C413        C414   1.401       .  A
C413        H416   1.083       .  S
C414        C417   1.444       .  S
C417        N419   1.157       .  T
C418        N420   1.158       .  T
C421        C422   1.409       .  A
C421        C426   1.416       .  A
C422        C423   1.406       .  A
C422        H427   1.085       .  S
C423        C424   1.416       .  A
C423        C430   1.444       .  S
C424        C425   1.407       .  A
C425        C426   1.404       .  A
C425        H428   1.085       .  S
C426        C429   1.444       .  S
C429        N431   1.157       .  T
C430        N432   1.157       .  T
C433        C434   1.407       .  A
C433        C438   1.412       .  A
C434        C435   1.405       .  A
C434        H439   1.082       .  S
C435        C436   1.416       .  A
C435        C442   1.444       .  S
C436        C437   1.411       .  A
C437        C438   1.406       .  A
C437        H440   1.082       .  S
C438        C441   1.444       .  S
C441        N443   1.157       .  T
C442        N444   1.157       .  T
C445        C446   1.403       .  A
C445        C450   1.409       .  A
C446        C975   1.405       .  A
C446        H451   1.085       .  S
C447        C974   1.405   1_545  A
C447        C448   1.417       .  A
C447        C454   1.444       .  S
C448        C449   1.405       .  A
C449        C978   1.399   1_545  A
C449        H452   1.084       .  S
C450        C977   1.399       .  A
C450        C453   1.444       .  S
C453        N455   1.157       .  T
C454        N456   1.157       .  T
C457       C1514   1.402       .  A
C457        C462   1.412       .  A
C458       C1513   1.402   1_455  A
C458        C459   1.401       .  A
C458        H463   1.084       .  S
C459        C460   1.412   1_455  A
C459        C466   1.444       .  S
C460       C1517   1.404       .  A
C461       C1516   1.404       .  A
C461        C462   1.403       .  A
C461        H464   1.084       .  S
C462        C465   1.444       .  S
C465        N467   1.157       .  T
C466        N468   1.157       .  T
C469        C470   1.405       .  A
C469        C474   1.419       .  A
C470        C471   1.404       .  A
C470        H475   1.085       .  S
C471        C472   1.420       .  A
C471        C478   1.445       .  S
C472        C473   1.406       .  A
C473        C474   1.404       .  A
C473        H476   1.084       .  S
C474        C477   1.445       .  S
C477        N479   1.158       .  T
C478        N480   1.158       .  T
C481        C482   1.408       .  A
C481        C486   1.413       .  A
C482        C483   1.404       .  A
C482        H487   1.083       .  S
C483        C484   1.415       .  A
C483        C490   1.444       .  S
C484        C485   1.409       .  A
C485        C486   1.402       .  A
C485        H488   1.083       .  S
C486        C489   1.444       .  S
C489        N491   1.157       .  T
C490        N492   1.157       .  T
C493        C494   1.404       .  A
C493        C498   1.416       .  A
C494        C495   1.405       .  A
C494        H499   1.085       .  S
C495        C496   1.420       .  A
C495        C502   1.444       .  S
C496        C497   1.405       .  A
C497        C498   1.400       .  A
C497        H500   1.084       .  S
C498        C501   1.445       .  S
C501        N503   1.157       .  T
C502        N504   1.158       .  T
C505        C506   1.409       .  A
C505        C510   1.415       .  A
C506        C507   1.404       .  A
C506        H511   1.083       .  S
C507        C508   1.415       .  A
C507        C514   1.444       .  S
C508        C509   1.409       .  A
C509        C510   1.405       .  A
C509        H512   1.083       .  S
C510        C513   1.444       .  S
C513        N515   1.157       .  T
C514        N516   1.157       .  T
C517        C518   1.405       .  A
C517        C522   1.415       .  A
C518       C1047   1.400   1_545  A
C518        H523   1.085       .  S
C519       C1046   1.400       .  A
C519        C520   1.411       .  A
C519        C526   1.444       .  S
C520        C521   1.404       .  A
C521       C1050   1.402       .  A
C521        H524   1.085       .  S
C522       C1049   1.402   1_545  A
C522        C525   1.444       .  S
C525        N527   1.157       .  T
C526        N528   1.157       .  T
C529        C794   1.423       .  A
C529        C534   1.412       .  A
C529        C611   1.492       .  S
C530        C793   1.423   1_554  A
C530        C531   1.409       .  A
C530        C551   1.495       .  S
C531        C532   1.409       .  A
C531        H536   1.085       .  S
C532        C797   1.420   1_554  A
C532        C540   1.492       .  S
C533        C796   1.420       .  A
C533        C534   1.410       .  A
C533        C598   1.493       .  S
C534        H535   1.085       .  S
O537        C540   1.265       .  A
O537       Cd542   2.497       .  S
C538        C781   1.482       .  S
C538        O547   1.266       .  A
C538        O543   1.263       .  A
O539        C545   1.269       .  A
O539       Cd542   2.481       .  S
C540        O548   1.263       .  A
C541        C757   1.488       .  S
C541        O546   1.270       .  A
C541        O544   1.262       .  A
Cd542       O549   2.466       .  S
Cd542       O548   2.478       .  S
Cd542       O547   2.503       .  S
Cd542       O543   2.435       .  S
Cd542       O546   2.510       .  S
Cd542       O544   2.423       .  S
C545        C772   1.496       .  S
C545        O549   1.267       .  A
O550        C553   1.267       .  A
O550       Cd555   2.500       .  S
C551        O560   1.264       .  A
C551        O556   1.265       .  A
O552        C558   1.269       .  A
O552       Cd555   2.504       .  S
C553        C784   1.478       .  S
C553        O561   1.263       .  A
C554        C733   1.496       .  S
C554        O559   1.271       .  A
C554        O557   1.264       .  A
Cd555       O562   2.442       .  S
Cd555       O561   2.444       .  S
Cd555       O560   2.478       .  S
Cd555       O556   2.506       .  S
Cd555       O559   2.501       .  S
Cd555       O557   2.446       .  S
C558        C748   1.494       .  S
C558        O562   1.264       .  A
O563        C566   1.265   1_655  A
O563       Cd568   2.504   1_655  S
C564       C1645   1.496       .  S
C564        O573   1.265   1_455  A
C564        O569   1.264       .  A
O565        C571   1.269       .  A
O565      Cd1624   2.508       .  S
C566        C724   1.480   1_455  S
C566        O574   1.261       .  A
C567        C760   1.494       .  S
C567        O572   1.271       .  A
C567        O570   1.265       .  A
Cd568      O1621   2.508   1_455  S
Cd568      O1631   2.458   1_455  S
Cd568       O574   2.454       .  S
Cd568       O573   2.478   1_455  S
Cd568       O569   2.483       .  S
Cd568       O572   2.486       .  S
Cd568       O570   2.458       .  S
C571        C769   1.497       .  S
C571        O575   1.264       .  A
O575      Cd1624   2.458       .  S
O576        C579   1.262       .  A
O576       Cd581   2.454       .  S
C577        C593   1.494       .  S
C577        O586   1.265       .  A
C577        O582   1.266       .  A
O578        C584   1.270       .  A
O578      Cd1637   2.509   1_455  S
C579        C721   1.478       .  S
C579        O587   1.266       .  A
C580        C745   1.491       .  S
C580        O585   1.269       .  A
C580        O583   1.266       .  A
Cd581      O1634   2.509       .  S
Cd581      O1644   2.448       .  S
Cd581       O587   2.494       .  S
Cd581       O586   2.480       .  S
Cd581       O582   2.498       .  S
Cd581       O585   2.478       .  S
Cd581       O583   2.456       .  S
C584        C736   1.497       .  S
C584        O588   1.263       .  A
O588      Cd1637   2.448   1_455  S
C589        C590   1.425       .  A
C589       C1122   1.411       .  A
C589       C1620   1.496       .  S
C590        C624   1.497       .  S
C591        C592   1.410   1_545  A
C591        H596   1.085       .  S
C592        C593   1.422       .  A
C592       C1693   1.495       .  S
C593       C1650   1.409   1_565  A
C594       C1117   1.411       .  A
C594       C1649   1.409   1_445  A
C594        H595   1.085       .  S
O597        C600   1.262       .  A
O597       Cd602   2.476       .  S
C598        O607   1.263       .  A
C598        O603   1.265       .  A
O599        C605   1.269       .  A
O599       Cd602   2.501       .  S
C600        C712   1.487       .  S
C600        O608   1.266       .  A
C601        C685   1.499       .  S
C601        O606   1.268       .  A
C601        O604   1.266       .  A
Cd602       O609   2.482       .  S
Cd602       O608   2.492       .  S
Cd602       O607   2.489       .  S
Cd602       O603   2.494       .  S
Cd602       O606   2.479       .  S
Cd602       O604   2.484       .  S
C605        C700   1.500       .  S
C605        O609   1.265       .  A
O610        C613   1.262       .  A
O610       Cd615   2.438       .  S
C611        O620   1.265       .  A
C611        O616   1.265       .  A
O612        C618   1.269       .  A
O612       Cd615   2.494       .  S
C613        C709   1.478       .  S
C613        O621   1.266       .  A
C614        C676   1.493       .  S
C614        O619   1.270       .  A
C614        O617   1.265       .  A
Cd615       O622   2.442       .  S
Cd615       O621   2.514       .  S
Cd615       O620   2.476       .  S
Cd615       O616   2.479       .  S
Cd615       O619   2.497       .  S
Cd615       O617   2.437       .  S
C618        C661   1.494       .  S
C618        O622   1.263       .  A
O623        C626   1.266       .  A
O623       Cd628   2.515       .  S
C624        O633   1.264       .  A
C624        O629   1.264       .  A
O625        C631   1.268       .  A
O625      Cd1684   2.504   1_455  S
C626        C649   1.481       .  S
C626        O634   1.261       .  A
C627        C697   1.492       .  S
C627        O632   1.269       .  A
C627        O630   1.266       .  A
Cd628      O1681   2.504       .  S
Cd628      O1691   2.477       .  S
Cd628       O634   2.456       .  S
Cd628       O633   2.485       .  S
Cd628       O629   2.494       .  S
Cd628       O632   2.487       .  S
Cd628       O630   2.465       .  S
C631        C688   1.498       .  S
C631        O635   1.265       .  A
O635      Cd1684   2.477   1_455  S
O636        C639   1.262       .  A
O636       Cd641   2.466       .  S
C637       C1648   1.495   1_455  S
C637        O646   1.265   1_455  A
C637        O642   1.264       .  A
O638        C644   1.269       .  A
O638      Cd1697   2.491       .  S
C639        C652   1.483       .  S
C639        O647   1.265   1_455  A
C640        C664   1.495       .  S
C640        O645   1.270       .  A
C640        O643   1.265       .  A
Cd641      O1694   2.491   1_455  S
Cd641      O1704   2.467   1_455  S
Cd641       O647   2.480   1_455  S
Cd641       O646   2.490   1_455  S
Cd641       O642   2.489       .  S
Cd641       O645   2.506       .  S
Cd641       O643   2.448       .  S
C644        C673   1.496       .  S
C644        O648   1.264       .  A
O648      Cd1697   2.467       .  S
C649       C1706   1.404       .  A
C649        C654   1.412       .  A
C650       C1705   1.404       .  A
C650        C651   1.404       .  A
C650        H655   1.084       .  S
C651        C652   1.415       .  A
C651        C658   1.444       .  S
C652       C1709   1.403   1_455  A
C653       C1708   1.403       .  A
C653        C654   1.399       .  A
C653        H656   1.084       .  S
C654        C657   1.443       .  S
C657        N659   1.157       .  T
C658        N660   1.157       .  T
C661        C662   1.404       .  A
C661        C666   1.419       .  A
C662        C663   1.402       .  A
C662        H667   1.085       .  S
C663        C664   1.419       .  A
C663        C670   1.444       .  S
C664        C665   1.405       .  A
C665        C666   1.405       .  A
C665        H668   1.085       .  S
C666        C669   1.445       .  S
C669        N671   1.158       .  T
C670        N672   1.157       .  T
C673        C674   1.411       .  A
C673        C678   1.414       .  A
C674        C675   1.406       .  A
C674        H679   1.083       .  S
C675        C676   1.414       .  A
C675        C682   1.445       .  S
C676        C677   1.407       .  A
C677        C678   1.401       .  A
C677        H680   1.083       .  S
C678        C681   1.444       .  S
C681        N683   1.157       .  T
C682        N684   1.158       .  T
C685        C686   1.409       .  A
C685        C690   1.416       .  A
C686        C687   1.406       .  A
C686        H691   1.085       .  S
C687        C688   1.416       .  A
C687        C694   1.444       .  S
C688        C689   1.407       .  A
C689        C690   1.404       .  A
C689        H692   1.085       .  S
C690        C693   1.444       .  S
C693        N695   1.157       .  T
C694        N696   1.157       .  T
C697        C698   1.407       .  A
C697        C702   1.412       .  A
C698        C699   1.405       .  A
C698        H703   1.082       .  S
C699        C700   1.416       .  A
C699        C706   1.444       .  S
C700        C701   1.411       .  A
C701        C702   1.406       .  A
C701        H704   1.082       .  S
C702        C705   1.444       .  S
C705        N707   1.157       .  T
C706        N708   1.157       .  T
C709        C710   1.403       .  A
C709        C714   1.409       .  A
C710        H715   1.085       .  S
C711        C712   1.417       .  A
C711        C718   1.444       .  S
C712        C713   1.405       .  A
C713        H716   1.084       .  S
C714        C717   1.444       .  S
C717        N719   1.157       .  T
C718        N720   1.157       .  T
C721       C1778   1.402       .  A
C721        C726   1.412       .  A
C722       C1777   1.402   1_455  A
C722        C723   1.401       .  A
C722        H727   1.085       .  S
C723        C724   1.412   1_455  A
C723        C730   1.444       .  S
C724       C1781   1.404       .  A
C725       C1780   1.404       .  A
C725        C726   1.403       .  A
C725        H728   1.084       .  S
C726        C729   1.444       .  S
C729        N731   1.157       .  T
C730        N732   1.157       .  T
C733        C734   1.405       .  A
C733        C738   1.419       .  A
C734        C735   1.404       .  A
C734        H739   1.085       .  S
C735        C736   1.420       .  A
C735        C742   1.445       .  S
C736        C737   1.406       .  A
C737        C738   1.404       .  A
C737        H740   1.084       .  S
C738        C741   1.445       .  S
C741        N743   1.158       .  T
C742        N744   1.158       .  T
C745        C746   1.408       .  A
C745        C750   1.413       .  A
C746        C747   1.404       .  A
C746        H751   1.083       .  S
C747        C748   1.415       .  A
C747        C754   1.444       .  S
C748        C749   1.409       .  A
C749        C750   1.402       .  A
C749        H752   1.083       .  S
C750        C753   1.444       .  S
C753        N755   1.157       .  T
C754        N756   1.157       .  T
C757        C758   1.404       .  A
C757        C762   1.416       .  A
C758        C759   1.405       .  A
C758        H763   1.085       .  S
C759        C760   1.420       .  A
C759        C766   1.444       .  S
C760        C761   1.405       .  A
C761        C762   1.400       .  A
C761        H764   1.084       .  S
C762        C765   1.445       .  S
C765        N767   1.157       .  T
C766        N768   1.158       .  T
C769        C770   1.409       .  A
C769        C774   1.415       .  A
C770        C771   1.404       .  A
C770        H775   1.083       .  S
C771        C772   1.415       .  A
C771        C778   1.444       .  S
C772        C773   1.409       .  A
C773        C774   1.405       .  A
C773        H776   1.083       .  S
C774        C777   1.444       .  S
C777        N779   1.157       .  T
C778        N780   1.157       .  T
C781        C782   1.405       .  A
C781        C786   1.415       .  A
C782        H787   1.085       .  S
C783        C784   1.411       .  A
C783        C790   1.444       .  S
C784        C785   1.404       .  A
C785        H788   1.085       .  S
C786        C789   1.444       .  S
C789        N791   1.157       .  T
C790        N792   1.157       .  T
C793        C798   1.412       .  A
C793        C875   1.492       .  S
C794        C795   1.409       .  A
C794        C815   1.495       .  S
C795        C796   1.409       .  A
C795        H800   1.085       .  S
C796        C804   1.492       .  S
C797        C798   1.410       .  A
C797        C862   1.493       .  S
C798        H799   1.085       .  S
O801        C804   1.265       .  A
O801       Cd806   2.497       .  S
C802       C1045   1.482       .  S
C802        O811   1.266       .  A
C802        O807   1.263       .  A
O803        C809   1.269       .  A
O803       Cd806   2.481       .  S
C804        O812   1.263       .  A
C805       C1021   1.488       .  S
C805        O810   1.270       .  A
C805        O808   1.262       .  A
Cd806       O813   2.466       .  S
Cd806       O812   2.478       .  S
Cd806       O811   2.503       .  S
Cd806       O807   2.435       .  S
Cd806       O810   2.510       .  S
Cd806       O808   2.423       .  S
C809       C1036   1.496       .  S
C809        O813   1.267       .  A
O814        C817   1.267       .  A
O814       Cd819   2.500       .  S
C815        O824   1.264       .  A
C815        O820   1.265       .  A
O816        C822   1.269       .  A
O816       Cd819   2.504       .  S
C817       C1048   1.478       .  S
C817        O825   1.263       .  A
C818        C997   1.496       .  S
C818        O823   1.271       .  A
C818        O821   1.264       .  A
Cd819       O826   2.442       .  S
Cd819       O825   2.444       .  S
Cd819       O824   2.478       .  S
Cd819       O820   2.506       .  S
Cd819       O823   2.501       .  S
Cd819       O821   2.446       .  S
C822       C1012   1.494       .  S
C822        O826   1.264       .  A
O827        C830   1.265   1_655  A
O827       Cd832   2.504   1_655  S
C828       C1909   1.496       .  S
C828        O837   1.265   1_455  A
C828        O833   1.264       .  A
O829        C835   1.269       .  A
O829      Cd1888   2.508       .  S
C830        C988   1.480   1_455  S
C830        O838   1.261       .  A
C831       C1024   1.494       .  S
C831        O836   1.271       .  A
C831        O834   1.265       .  A
Cd832      O1885   2.508   1_455  S
Cd832      O1895   2.458   1_455  S
Cd832       O838   2.454       .  S
Cd832       O837   2.478   1_455  S
Cd832       O833   2.483       .  S
Cd832       O836   2.486       .  S
Cd832       O834   2.458       .  S
C835       C1033   1.497       .  S
C835        O839   1.264       .  A
O839      Cd1888   2.458       .  S
O840        C843   1.262       .  A
O840       Cd845   2.454       .  S
C841        C857   1.494       .  S
C841        O850   1.265       .  A
C841        O846   1.266       .  A
O842        C848   1.270       .  A
O842      Cd1901   2.509   1_455  S
C843        C985   1.478       .  S
C843        O851   1.266       .  A
C844       C1009   1.491       .  S
C844        O849   1.269       .  A
C844        O847   1.266       .  A
Cd845      O1898   2.509       .  S
Cd845      O1908   2.448       .  S
Cd845       O851   2.494       .  S
Cd845       O850   2.480       .  S
Cd845       O846   2.498       .  S
Cd845       O849   2.478       .  S
Cd845       O847   2.456       .  S
C848       C1000   1.497       .  S
C848        O852   1.263       .  A
O852      Cd1901   2.448   1_455  S
C853        C854   1.425       .  A
C853       C1386   1.411       .  A
C853       C1884   1.496       .  S
C854        C888   1.497       .  S
C855        C856   1.410   1_545  A
C855        H860   1.085       .  S
C856        C857   1.422       .  A
C856       C1957   1.495       .  S
C857       C1914   1.409   1_565  A
C858       C1381   1.411       .  A
C858       C1913   1.409   1_445  A
C858        H859   1.085       .  S
O861        C864   1.262       .  A
O861       Cd866   2.476       .  S
C862        O871   1.263       .  A
C862        O867   1.265       .  A
O863        C869   1.269       .  A
O863       Cd866   2.501       .  S
C864        C976   1.487       .  S
C864        O872   1.266       .  A
C865        C949   1.499       .  S
C865        O870   1.268       .  A
C865        O868   1.266       .  A
Cd866       O873   2.482       .  S
Cd866       O872   2.492       .  S
Cd866       O871   2.489       .  S
Cd866       O867   2.494       .  S
Cd866       O870   2.479       .  S
Cd866       O868   2.484       .  S
C869        C964   1.500       .  S
C869        O873   1.265       .  A
O874        C877   1.262       .  A
O874       Cd879   2.438       .  S
C875        O884   1.265       .  A
C875        O880   1.265       .  A
O876        C882   1.269       .  A
O876       Cd879   2.494       .  S
C877        C973   1.478       .  S
C877        O885   1.266       .  A
C878        C940   1.493       .  S
C878        O883   1.270       .  A
C878        O881   1.265       .  A
Cd879       O886   2.442       .  S
Cd879       O885   2.514       .  S
Cd879       O884   2.476       .  S
Cd879       O880   2.479       .  S
Cd879       O883   2.497       .  S
Cd879       O881   2.437       .  S
C882        C925   1.494       .  S
C882        O886   1.263       .  A
O887        C890   1.266       .  A
O887       Cd892   2.515       .  S
C888        O897   1.264       .  A
C888        O893   1.264       .  A
O889        C895   1.268       .  A
O889      Cd1948   2.504   1_455  S
C890        C913   1.481       .  S
C890        O898   1.261       .  A
C891        C961   1.492       .  S
C891        O896   1.269       .  A
C891        O894   1.266       .  A
Cd892      O1945   2.504       .  S
Cd892      O1955   2.477       .  S
Cd892       O898   2.456       .  S
Cd892       O897   2.485       .  S
Cd892       O893   2.494       .  S
Cd892       O896   2.487       .  S
Cd892       O894   2.465       .  S
C895        C952   1.498       .  S
C895        O899   1.265       .  A
O899      Cd1948   2.477   1_455  S
O900        C903   1.262       .  A
O900       Cd905   2.465       .  S
C901       C1912   1.495   1_455  S
C901        O910   1.265   1_455  A
C901        O906   1.264       .  A
O902        C908   1.269       .  A
O902      Cd1961   2.491       .  S
C903        C916   1.483       .  S
C903        O911   1.265   1_455  A
C904        C928   1.495       .  S
C904        O909   1.270       .  A
C904        O907   1.265       .  A
Cd905      O1958   2.491   1_455  S
Cd905      O1968   2.467   1_455  S
Cd905       O911   2.480   1_455  S
Cd905       O910   2.490   1_455  S
Cd905       O906   2.489       .  S
Cd905       O909   2.506       .  S
Cd905       O907   2.448       .  S
C908        C937   1.496       .  S
C908        O912   1.264       .  A
O912      Cd1961   2.467       .  S
C913       C1970   1.404       .  A
C913        C918   1.412       .  A
C914       C1969   1.404       .  A
C914        C915   1.404       .  A
C914        H919   1.084       .  S
C915        C916   1.415       .  A
C915        C922   1.444       .  S
C916       C1973   1.403   1_455  A
C917       C1972   1.403       .  A
C917        C918   1.399       .  A
C917        H920   1.084       .  S
C918        C921   1.443       .  S
C921        N923   1.157       .  T
C922        N924   1.157       .  T
C925        C926   1.404       .  A
C925        C930   1.419       .  A
C926        C927   1.402       .  A
C926        H931   1.085       .  S
C927        C928   1.419       .  A
C927        C934   1.444       .  S
C928        C929   1.405       .  A
C929        C930   1.405       .  A
C929        H932   1.085       .  S
C930        C933   1.445       .  S
C933        N935   1.158       .  T
C934        N936   1.157       .  T
C937        C938   1.411       .  A
C937        C942   1.414       .  A
C938        C939   1.406       .  A
C938        H943   1.083       .  S
C939        C940   1.414       .  A
C939        C946   1.445       .  S
C940        C941   1.407       .  A
C941        C942   1.401       .  A
C941        H944   1.083       .  S
C942        C945   1.444       .  S
C945        N947   1.157       .  T
C946        N948   1.158       .  T
C949        C950   1.409       .  A
C949        C954   1.416       .  A
C950        C951   1.406       .  A
C950        H955   1.085       .  S
C951        C952   1.416       .  A
C951        C958   1.444       .  S
C952        C953   1.407       .  A
C953        C954   1.404       .  A
C953        H956   1.085       .  S
C954        C957   1.444       .  S
C957        N959   1.157       .  T
C958        N960   1.157       .  T
C961        C962   1.407       .  A
C961        C966   1.412       .  A
C962        C963   1.405       .  A
C962        H967   1.082       .  S
C963        C964   1.416       .  A
C963        C970   1.444       .  S
C964        C965   1.411       .  A
C965        C966   1.406       .  A
C965        H968   1.082       .  S
C966        C969   1.444       .  S
C969        N971   1.157       .  T
C970        N972   1.157       .  T
C973        C974   1.403       .  A
C973        C978   1.409       .  A
C974        H979   1.085       .  S
C975        C976   1.417       .  A
C975        C982   1.444       .  S
C976        C977   1.405       .  A
C977        H980   1.084       .  S
C978        C981   1.444       .  S
C981        N983   1.157       .  T
C982        N984   1.157       .  T
C985       C2042   1.402       .  A
C985        C990   1.412       .  A
C986       C2041   1.402   1_455  A
C986        C987   1.401       .  A
C986        H991   1.084       .  S
C987        C988   1.412   1_455  A
C987        C994   1.444       .  S
C988       C2045   1.404       .  A
C989       C2044   1.404       .  A
C989        C990   1.403       .  A
C989        H992   1.084       .  S
C990        C993   1.444       .  S
C993        N995   1.157       .  T
C994        N996   1.157       .  T
C997        C998   1.405       .  A
C997       C1002   1.419       .  A
C998        C999   1.404       .  A
C998       H1003   1.085       .  S
C999       C1000   1.420       .  A
C999       C1006   1.445       .  S
C1000      C1001   1.406       .  A
C1001      C1002   1.404       .  A
C1001      H1004   1.084       .  S
C1002      C1005   1.445       .  S
C1005      N1007   1.158       .  T
C1006      N1008   1.158       .  T
C1009      C1010   1.408       .  A
C1009      C1014   1.413       .  A
C1010      C1011   1.404       .  A
C1010      H1015   1.083       .  S
C1011      C1012   1.415       .  A
C1011      C1018   1.444       .  S
C1012      C1013   1.409       .  A
C1013      C1014   1.402       .  A
C1013      H1016   1.083       .  S
C1014      C1017   1.444       .  S
C1017      N1019   1.157       .  T
C1018      N1020   1.157       .  T
C1021      C1022   1.404       .  A
C1021      C1026   1.416       .  A
C1022      C1023   1.405       .  A
C1022      H1027   1.085       .  S
C1023      C1024   1.420       .  A
C1023      C1030   1.444       .  S
C1024      C1025   1.405       .  A
C1025      C1026   1.400       .  A
C1025      H1028   1.084       .  S
C1026      C1029   1.445       .  S
C1029      N1031   1.157       .  T
C1030      N1032   1.158       .  T
C1033      C1034   1.409       .  A
C1033      C1038   1.415       .  A
C1034      C1035   1.404       .  A
C1034      H1039   1.083       .  S
C1035      C1036   1.415       .  A
C1035      C1042   1.444       .  S
C1036      C1037   1.409       .  A
C1037      C1038   1.405       .  A
C1037      H1040   1.083       .  S
C1038      C1041   1.444       .  S
C1041      N1043   1.157       .  T
C1042      N1044   1.157       .  T
C1045      C1046   1.405       .  A
C1045      C1050   1.415       .  A
C1046      H1051   1.085       .  S
C1047      C1048   1.411       .  A
C1047      C1054   1.444       .  S
C1048      C1049   1.404       .  A
C1049      H1052   1.085       .  S
C1050      C1053   1.444       .  S
C1053      N1055   1.157       .  T
C1054      N1056   1.157       .  T
C1057      C1322   1.423       .  A
C1057      C1062   1.412       .  A
C1057      C1139   1.492       .  S
C1058      C1321   1.423   1_554  A
C1058      C1059   1.409       .  A
C1058      C1079   1.495       .  S
C1059      C1060   1.409       .  A
C1059      H1064   1.085       .  S
C1060      C1325   1.420   1_554  A
C1060      C1068   1.492       .  S
C1061      C1324   1.420       .  A
C1061      C1062   1.410       .  A
C1061      C1126   1.493       .  S
C1062      H1063   1.085       .  S
O1065      C1068   1.265       .  A
O1065     Cd1070   2.497       .  S
C1066      C1309   1.482       .  S
C1066      O1075   1.266       .  A
C1066      O1071   1.263       .  A
O1067      C1073   1.269       .  A
O1067     Cd1070   2.481       .  S
C1068      O1076   1.263       .  A
C1069      C1285   1.488       .  S
C1069      O1074   1.270       .  A
C1069      O1072   1.262       .  A
Cd1070     O1077   2.466       .  S
Cd1070     O1076   2.478       .  S
Cd1070     O1075   2.503       .  S
Cd1070     O1071   2.435       .  S
Cd1070     O1074   2.510       .  S
Cd1070     O1072   2.423       .  S
C1073      C1300   1.496       .  S
C1073      O1077   1.267       .  A
O1078      C1081   1.267       .  A
O1078     Cd1083   2.500       .  S
C1079      O1088   1.264       .  A
C1079      O1084   1.265       .  A
O1080      C1086   1.269       .  A
O1080     Cd1083   2.504       .  S
C1081      C1312   1.478       .  S
C1081      O1089   1.263       .  A
C1082      C1261   1.496       .  S
C1082      O1087   1.271       .  A
C1082      O1085   1.264       .  A
Cd1083     O1090   2.442       .  S
Cd1083     O1089   2.444       .  S
Cd1083     O1088   2.478       .  S
Cd1083     O1084   2.506       .  S
Cd1083     O1087   2.501       .  S
Cd1083     O1085   2.446       .  S
C1086      C1276   1.494       .  S
C1086      O1090   1.264       .  A
O1091      C1094   1.265       .  A
O1091     Cd1096   2.504       .  S
C1092      O1101   1.265       .  A
C1092      O1097   1.264       .  A
O1093      C1099   1.269       .  A
C1094      C1252   1.480       .  S
C1094      O1102   1.261       .  A
C1095      C1288   1.494       .  S
C1095      O1100   1.271       .  A
C1095      O1098   1.265       .  A
Cd1096     O1102   2.454       .  S
Cd1096     O1101   2.478       .  S
Cd1096     O1097   2.483       .  S
Cd1096     O1100   2.486       .  S
Cd1096     O1098   2.458       .  S
C1099      C1297   1.497       .  S
C1099      O1103   1.264       .  A
O1104      C1107   1.262       .  A
O1104     Cd1109   2.454       .  S
C1105      C1121   1.494       .  S
C1105      O1114   1.265   1_655  A
C1105      O1110   1.266       .  A
O1106      C1112   1.270       .  A
C1107      C1249   1.478       .  S
C1107      O1115   1.266   1_655  A
C1108      C1273   1.491       .  S
C1108      O1113   1.269       .  A
C1108      O1111   1.266       .  A
Cd1109     O1115   2.494   1_655  S
Cd1109     O1114   2.480   1_655  S
Cd1109     O1110   2.498       .  S
Cd1109     O1113   2.478       .  S
Cd1109     O1111   2.456       .  S
C1112      C1264   1.497       .  S
C1112      O1116   1.263       .  A
C1117      C1118   1.425   1_455  A
C1118      C1647   1.411       .  A
C1118      C1152   1.497       .  S
C1119      C1646   1.411       .  A
C1119      C1120   1.410       .  A
C1119      H1124   1.085       .  S
C1120      C1121   1.422       .  A
C1122      H1123   1.085       .  S
O1125      C1128   1.262       .  A
O1125     Cd1130   2.476       .  S
C1126      O1135   1.263       .  A
C1126      O1131   1.265       .  A
O1127      C1133   1.269       .  A
O1127     Cd1130   2.501       .  S
C1128      C1240   1.487       .  S
C1128      O1136   1.266       .  A
C1129      C1213   1.499       .  S
C1129      O1134   1.268       .  A
C1129      O1132   1.266       .  A
Cd1130     O1137   2.482       .  S
Cd1130     O1136   2.492       .  S
Cd1130     O1135   2.489       .  S
Cd1130     O1131   2.494       .  S
Cd1130     O1134   2.479       .  S
Cd1130     O1132   2.484       .  S
C1133      C1228   1.500       .  S
C1133      O1137   1.265       .  A
O1138      C1141   1.262       .  A
O1138     Cd1143   2.438       .  S
C1139      O1148   1.265       .  A
C1139      O1144   1.265       .  A
O1140      C1146   1.269       .  A
O1140     Cd1143   2.494       .  S
C1141      C1237   1.478       .  S
C1141      O1149   1.266       .  A
C1142      C1204   1.493       .  S
C1142      O1147   1.270       .  A
C1142      O1145   1.265       .  A
Cd1143     O1150   2.442       .  S
Cd1143     O1149   2.514       .  S
Cd1143     O1148   2.476       .  S
Cd1143     O1144   2.479       .  S
Cd1143     O1147   2.497       .  S
Cd1143     O1145   2.437       .  S
C1146      C1189   1.494       .  S
C1146      O1150   1.263       .  A
O1151      C1154   1.266   1_455  A
O1151     Cd1156   2.515   1_455  S
C1152      O1161   1.264   1_655  A
C1152      O1157   1.264       .  A
O1153      C1159   1.268       .  A
C1154      C1177   1.481   1_655  S
C1154      O1162   1.261       .  A
C1155      C1225   1.492       .  S
C1155      O1160   1.269       .  A
C1155      O1158   1.266       .  A
Cd1156     O1162   2.456       .  S
Cd1156     O1161   2.485   1_655  S
Cd1156     O1157   2.494       .  S
Cd1156     O1160   2.487       .  S
Cd1156     O1158   2.465       .  S
C1159      C1216   1.498       .  S
C1159      O1163   1.265       .  A
O1164      C1167   1.262       .  A
O1164     Cd1169   2.466       .  S
C1165      O1174   1.265       .  A
C1165      O1170   1.264       .  A
O1166      C1172   1.269       .  A
C1167      C1180   1.483       .  S
C1167      O1175   1.265       .  A
C1168      C1192   1.495       .  S
C1168      O1173   1.270       .  A
C1168      O1171   1.265       .  A
Cd1169     O1175   2.480       .  S
Cd1169     O1174   2.490       .  S
Cd1169     O1170   2.489       .  S
Cd1169     O1173   2.506       .  S
Cd1169     O1171   2.448       .  S
C1172      C1201   1.496       .  S
C1172      O1176   1.264       .  A
C1177      C1182   1.412   1_455  A
C1178      C1179   1.404       .  A
C1178      H1183   1.084       .  S
C1179      C1180   1.415       .  A
C1179      C1186   1.444       .  S
C1181      C1182   1.399       .  A
C1181      H1184   1.084       .  S
C1182      C1185   1.443       .  S
C1185      N1187   1.157       .  T
C1186      N1188   1.157       .  T
C1189      C1190   1.404       .  A
C1189      C1194   1.419       .  A
C1190      C1191   1.402       .  A
C1190      H1195   1.085       .  S
C1191      C1192   1.419       .  A
C1191      C1198   1.444       .  S
C1192      C1193   1.405       .  A
C1193      C1194   1.405       .  A
C1193      H1196   1.085       .  S
C1194      C1197   1.445       .  S
C1197      N1199   1.158       .  T
C1198      N1200   1.157       .  T
C1201      C1202   1.411       .  A
C1201      C1206   1.414       .  A
C1202      C1203   1.406       .  A
C1202      H1207   1.083       .  S
C1203      C1204   1.414       .  A
C1203      C1210   1.445       .  S
C1204      C1205   1.407       .  A
C1205      C1206   1.401       .  A
C1205      H1208   1.083       .  S
C1206      C1209   1.444       .  S
C1209      N1211   1.157       .  T
C1210      N1212   1.158       .  T
C1213      C1214   1.409       .  A
C1213      C1218   1.416       .  A
C1214      C1215   1.406       .  A
C1214      H1219   1.085       .  S
C1215      C1216   1.416       .  A
C1215      C1222   1.444       .  S
C1216      C1217   1.407       .  A
C1217      C1218   1.404       .  A
C1217      H1220   1.085       .  S
C1218      C1221   1.444       .  S
C1221      N1223   1.157       .  T
C1222      N1224   1.157       .  T
C1225      C1226   1.407       .  A
C1225      C1230   1.412       .  A
C1226      C1227   1.405       .  A
C1226      H1231   1.082       .  S
C1227      C1228   1.416       .  A
C1227      C1234   1.444       .  S
C1228      C1229   1.411       .  A
C1229      C1230   1.406       .  A
C1229      H1232   1.082       .  S
C1230      C1233   1.444       .  S
C1233      N1235   1.157       .  T
C1234      N1236   1.157       .  T
C1237      C1238   1.403       .  A
C1237      C1242   1.409       .  A
C1238      C1767   1.405       .  A
C1238      H1243   1.085       .  S
C1239      C1766   1.405   1_545  A
C1239      C1240   1.417       .  A
C1239      C1246   1.444       .  S
C1240      C1241   1.405       .  A
C1241      C1770   1.399   1_545  A
C1241      H1244   1.084       .  S
C1242      C1769   1.399       .  A
C1242      C1245   1.444       .  S
C1245      N1247   1.157       .  T
C1246      N1248   1.157       .  T
C1249      C1254   1.412       .  A
C1250      C1251   1.401       .  A
C1250      H1255   1.084       .  S
C1251      C1252   1.412       .  A
C1251      C1258   1.444       .  S
C1253      C1254   1.403       .  A
C1253      H1256   1.084       .  S
C1254      C1257   1.444       .  S
C1257      N1259   1.157       .  T
C1258      N1260   1.157       .  T
C1261      C1262   1.405       .  A
C1261      C1266   1.419       .  A
C1262      C1263   1.404       .  A
C1262      H1267   1.085       .  S
C1263      C1264   1.420       .  A
C1263      C1270   1.445       .  S
C1264      C1265   1.406       .  A
C1265      C1266   1.404       .  A
C1265      H1268   1.085       .  S
C1266      C1269   1.445       .  S
C1269      N1271   1.158       .  T
C1270      N1272   1.158       .  T
C1273      C1274   1.408       .  A
C1273      C1278   1.413       .  A
C1274      C1275   1.404       .  A
C1274      H1279   1.083       .  S
C1275      C1276   1.415       .  A
C1275      C1282   1.444       .  S
C1276      C1277   1.409       .  A
C1277      C1278   1.402       .  A
C1277      H1280   1.083       .  S
C1278      C1281   1.444       .  S
C1281      N1283   1.157       .  T
C1282      N1284   1.157       .  T
C1285      C1286   1.404       .  A
C1285      C1290   1.416       .  A
C1286      C1287   1.405       .  A
C1286      H1291   1.085       .  S
C1287      C1288   1.420       .  A
C1287      C1294   1.444       .  S
C1288      C1289   1.405       .  A
C1289      C1290   1.400       .  A
C1289      H1292   1.084       .  S
C1290      C1293   1.445       .  S
C1293      N1295   1.157       .  T
C1294      N1296   1.158       .  T
C1297      C1298   1.409       .  A
C1297      C1302   1.415       .  A
C1298      C1299   1.404       .  A
C1298      H1303   1.083       .  S
C1299      C1300   1.415       .  A
C1299      C1306   1.444       .  S
C1300      C1301   1.409       .  A
C1301      C1302   1.405       .  A
C1301      H1304   1.083       .  S
C1302      C1305   1.444       .  S
C1305      N1307   1.157       .  T
C1306      N1308   1.157       .  T
C1309      C1310   1.405       .  A
C1309      C1314   1.415       .  A
C1310      C1839   1.400   1_545  A
C1310      H1315   1.085       .  S
C1311      C1838   1.400       .  A
C1311      C1312   1.411       .  A
C1311      C1318   1.444       .  S
C1312      C1313   1.404       .  A
C1313      C1842   1.402       .  A
C1313      H1316   1.085       .  S
C1314      C1841   1.402   1_545  A
C1314      C1317   1.444       .  S
C1317      N1319   1.157       .  T
C1318      N1320   1.157       .  T
C1321      C1326   1.412       .  A
C1321      C1403   1.492       .  S
C1322      C1323   1.409       .  A
C1322      C1343   1.495       .  S
C1323      C1324   1.409       .  A
C1323      H1328   1.085       .  S
C1324      C1332   1.492       .  S
C1325      C1326   1.410       .  A
C1325      C1390   1.493       .  S
C1326      H1327   1.085       .  S
O1329      C1332   1.265       .  A
O1329     Cd1334   2.497       .  S
C1330      C1573   1.482       .  S
C1330      O1339   1.266       .  A
C1330      O1335   1.263       .  A
O1331      C1337   1.269       .  A
O1331     Cd1334   2.481       .  S
C1332      O1340   1.263       .  A
C1333      C1549   1.488       .  S
C1333      O1338   1.270       .  A
C1333      O1336   1.262       .  A
Cd1334     O1341   2.466       .  S
Cd1334     O1340   2.478       .  S
Cd1334     O1339   2.503       .  S
Cd1334     O1335   2.435       .  S
Cd1334     O1338   2.510       .  S
Cd1334     O1336   2.423       .  S
C1337      C1564   1.496       .  S
C1337      O1341   1.267       .  A
O1342      C1345   1.267       .  A
O1342     Cd1347   2.500       .  S
C1343      O1352   1.264       .  A
C1343      O1348   1.265       .  A
O1344      C1350   1.269       .  A
O1344     Cd1347   2.504       .  S
C1345      C1576   1.478       .  S
C1345      O1353   1.263       .  A
C1346      C1525   1.496       .  S
C1346      O1351   1.271       .  A
C1346      O1349   1.264       .  A
Cd1347     O1354   2.442       .  S
Cd1347     O1353   2.444       .  S
Cd1347     O1352   2.478       .  S
Cd1347     O1348   2.506       .  S
Cd1347     O1351   2.501       .  S
Cd1347     O1349   2.446       .  S
C1350      C1540   1.494       .  S
C1350      O1354   1.264       .  A
O1355      C1358   1.265       .  A
O1355     Cd1360   2.504       .  S
C1356      O1365   1.265       .  A
C1356      O1361   1.264       .  A
O1357      C1363   1.269       .  A
C1358      C1516   1.480       .  S
C1358      O1366   1.261       .  A
C1359      C1552   1.494       .  S
C1359      O1364   1.271       .  A
C1359      O1362   1.265       .  A
Cd1360     O1366   2.454       .  S
Cd1360     O1365   2.478       .  S
Cd1360     O1361   2.483       .  S
Cd1360     O1364   2.486       .  S
Cd1360     O1362   2.458       .  S
C1363      C1561   1.497       .  S
C1363      O1367   1.264       .  A
O1368      C1371   1.262       .  A
O1368     Cd1373   2.454       .  S
C1369      C1385   1.494       .  S
C1369      O1378   1.265   1_655  A
C1369      O1374   1.266       .  A
O1370      C1376   1.270       .  A
C1371      C1513   1.478       .  S
C1371      O1379   1.266   1_655  A
C1372      C1537   1.491       .  S
C1372      O1377   1.269       .  A
C1372      O1375   1.266       .  A
Cd1373     O1379   2.494   1_655  S
Cd1373     O1378   2.480   1_655  S
Cd1373     O1374   2.498       .  S
Cd1373     O1377   2.478       .  S
Cd1373     O1375   2.456       .  S
C1376      C1528   1.497       .  S
C1376      O1380   1.263       .  A
C1381      C1382   1.425   1_455  A
C1382      C1911   1.411       .  A
C1382      C1416   1.497       .  S
C1383      C1910   1.411       .  A
C1383      C1384   1.410       .  A
C1383      H1388   1.085       .  S
C1384      C1385   1.422       .  A
C1386      H1387   1.085       .  S
O1389      C1392   1.262       .  A
O1389     Cd1394   2.476       .  S
C1390      O1399   1.263       .  A
C1390      O1395   1.265       .  A
O1391      C1397   1.269       .  A
O1391     Cd1394   2.501       .  S
C1392      C1504   1.487       .  S
C1392      O1400   1.266       .  A
C1393      C1477   1.499       .  S
C1393      O1398   1.268       .  A
C1393      O1396   1.266       .  A
Cd1394     O1401   2.482       .  S
Cd1394     O1400   2.492       .  S
Cd1394     O1399   2.489       .  S
Cd1394     O1395   2.494       .  S
Cd1394     O1398   2.479       .  S
Cd1394     O1396   2.484       .  S
C1397      C1492   1.500       .  S
C1397      O1401   1.265       .  A
O1402      C1405   1.262       .  A
O1402     Cd1407   2.438       .  S
C1403      O1412   1.265       .  A
C1403      O1408   1.265       .  A
O1404      C1410   1.269       .  A
O1404     Cd1407   2.494       .  S
C1405      C1501   1.478       .  S
C1405      O1413   1.266       .  A
C1406      C1468   1.493       .  S
C1406      O1411   1.270       .  A
C1406      O1409   1.265       .  A
Cd1407     O1414   2.442       .  S
Cd1407     O1413   2.514       .  S
Cd1407     O1412   2.476       .  S
Cd1407     O1408   2.479       .  S
Cd1407     O1411   2.497       .  S
Cd1407     O1409   2.437       .  S
C1410      C1453   1.494       .  S
C1410      O1414   1.263       .  A
O1415      C1418   1.266   1_455  A
O1415     Cd1420   2.515   1_455  S
C1416      O1425   1.264   1_655  A
C1416      O1421   1.264       .  A
O1417      C1423   1.268       .  A
C1418      C1441   1.481   1_655  S
C1418      O1426   1.261       .  A
C1419      C1489   1.492       .  S
C1419      O1424   1.269       .  A
C1419      O1422   1.266       .  A
Cd1420     O1426   2.456       .  S
Cd1420     O1425   2.485   1_655  S
Cd1420     O1421   2.494       .  S
Cd1420     O1424   2.487       .  S
Cd1420     O1422   2.465       .  S
C1423      C1480   1.498       .  S
C1423      O1427   1.265       .  A
O1428      C1431   1.262       .  A
O1428     Cd1433   2.465       .  S
C1429      O1438   1.265       .  A
C1429      O1434   1.264       .  A
O1430      C1436   1.269       .  A
C1431      C1444   1.483       .  S
C1431      O1439   1.265       .  A
C1432      C1456   1.495       .  S
C1432      O1437   1.270       .  A
C1432      O1435   1.265       .  A
Cd1433     O1439   2.480       .  S
Cd1433     O1438   2.490       .  S
Cd1433     O1434   2.489       .  S
Cd1433     O1437   2.506       .  S
Cd1433     O1435   2.448       .  S
C1436      C1465   1.496       .  S
C1436      O1440   1.264       .  A
C1441      C1446   1.412   1_455  A
C1442      C1443   1.404       .  A
C1442      H1447   1.084       .  S
C1443      C1444   1.415       .  A
C1443      C1450   1.444       .  S
C1445      C1446   1.399       .  A
C1445      H1448   1.084       .  S
C1446      C1449   1.443       .  S
C1449      N1451   1.157       .  T
C1450      N1452   1.157       .  T
C1453      C1454   1.404       .  A
C1453      C1458   1.419       .  A
C1454      C1455   1.402       .  A
C1454      H1459   1.085       .  S
C1455      C1456   1.419       .  A
C1455      C1462   1.444       .  S
C1456      C1457   1.405       .  A
C1457      C1458   1.405       .  A
C1457      H1460   1.085       .  S
C1458      C1461   1.445       .  S
C1461      N1463   1.158       .  T
C1462      N1464   1.157       .  T
C1465      C1466   1.411       .  A
C1465      C1470   1.414       .  A
C1466      C1467   1.406       .  A
C1466      H1471   1.083       .  S
C1467      C1468   1.414       .  A
C1467      C1474   1.445       .  S
C1468      C1469   1.407       .  A
C1469      C1470   1.401       .  A
C1469      H1472   1.083       .  S
C1470      C1473   1.444       .  S
C1473      N1475   1.157       .  T
C1474      N1476   1.158       .  T
C1477      C1478   1.409       .  A
C1477      C1482   1.416       .  A
C1478      C1479   1.406       .  A
C1478      H1483   1.085       .  S
C1479      C1480   1.416       .  A
C1479      C1486   1.444       .  S
C1480      C1481   1.407       .  A
C1481      C1482   1.404       .  A
C1481      H1484   1.085       .  S
C1482      C1485   1.444       .  S
C1485      N1487   1.157       .  T
C1486      N1488   1.157       .  T
C1489      C1490   1.407       .  A
C1489      C1494   1.412       .  A
C1490      C1491   1.405       .  A
C1490      H1495   1.082       .  S
C1491      C1492   1.416       .  A
C1491      C1498   1.444       .  S
C1492      C1493   1.411       .  A
C1493      C1494   1.406       .  A
C1493      H1496   1.082       .  S
C1494      C1497   1.444       .  S
C1497      N1499   1.157       .  T
C1498      N1500   1.157       .  T
C1501      C1502   1.403       .  A
C1501      C1506   1.409       .  A
C1502      C2031   1.405       .  A
C1502      H1507   1.085       .  S
C1503      C2030   1.405   1_545  A
C1503      C1504   1.417       .  A
C1503      C1510   1.444       .  S
C1504      C1505   1.405       .  A
C1505      C2034   1.399   1_545  A
C1505      H1508   1.084       .  S
C1506      C2033   1.399       .  A
C1506      C1509   1.444       .  S
C1509      N1511   1.157       .  T
C1510      N1512   1.157       .  T
C1513      C1518   1.412       .  A
C1514      C1515   1.401       .  A
C1514      H1519   1.084       .  S
C1515      C1516   1.412       .  A
C1515      C1522   1.444       .  S
C1517      C1518   1.403       .  A
C1517      H1520   1.084       .  S
C1518      C1521   1.444       .  S
C1521      N1523   1.157       .  T
C1522      N1524   1.157       .  T
C1525      C1526   1.405       .  A
C1525      C1530   1.419       .  A
C1526      C1527   1.404       .  A
C1526      H1531   1.085       .  S
C1527      C1528   1.420       .  A
C1527      C1534   1.445       .  S
C1528      C1529   1.406       .  A
C1529      C1530   1.404       .  A
C1529      H1532   1.084       .  S
C1530      C1533   1.445       .  S
C1533      N1535   1.158       .  T
C1534      N1536   1.158       .  T
C1537      C1538   1.408       .  A
C1537      C1542   1.413       .  A
C1538      C1539   1.404       .  A
C1538      H1543   1.083       .  S
C1539      C1540   1.415       .  A
C1539      C1546   1.444       .  S
C1540      C1541   1.409       .  A
C1541      C1542   1.402       .  A
C1541      H1544   1.083       .  S
C1542      C1545   1.444       .  S
C1545      N1547   1.157       .  T
C1546      N1548   1.157       .  T
C1549      C1550   1.404       .  A
C1549      C1554   1.416       .  A
C1550      C1551   1.405       .  A
C1550      H1555   1.085       .  S
C1551      C1552   1.420       .  A
C1551      C1558   1.444       .  S
C1552      C1553   1.405       .  A
C1553      C1554   1.400       .  A
C1553      H1556   1.084       .  S
C1554      C1557   1.445       .  S
C1557      N1559   1.157       .  T
C1558      N1560   1.158       .  T
C1561      C1562   1.409       .  A
C1561      C1566   1.415       .  A
C1562      C1563   1.404       .  A
C1562      H1567   1.083       .  S
C1563      C1564   1.415       .  A
C1563      C1570   1.444       .  S
C1564      C1565   1.409       .  A
C1565      C1566   1.405       .  A
C1565      H1568   1.083       .  S
C1566      C1569   1.444       .  S
C1569      N1571   1.157       .  T
C1570      N1572   1.157       .  T
C1573      C1574   1.405       .  A
C1573      C1578   1.415       .  A
C1574      C2103   1.400   1_545  A
C1574      H1579   1.085       .  S
C1575      C2102   1.400       .  A
C1575      C1576   1.411       .  A
C1575      C1582   1.444       .  S
C1576      C1577   1.404       .  A
C1577      C2106   1.402       .  A
C1577      H1580   1.085       .  S
C1578      C2105   1.402   1_545  A
C1578      C1581   1.444       .  S
C1581      N1583   1.157       .  T
C1582      N1584   1.157       .  T
C1585      C1850   1.423       .  A
C1585      C1590   1.412       .  A
C1585      C1667   1.492       .  S
C1586      C1849   1.423   1_554  A
C1586      C1587   1.409       .  A
C1586      C1607   1.495       .  S
C1587      C1588   1.409       .  A
C1587      H1592   1.085       .  S
C1588      C1853   1.420   1_554  A
C1588      C1596   1.492       .  S
C1589      C1852   1.420       .  A
C1589      C1590   1.410       .  A
C1589      C1654   1.493       .  S
C1590      H1591   1.085       .  S
O1593      C1596   1.265       .  A
O1593     Cd1598   2.497       .  S
C1594      C1837   1.482       .  S
C1594      O1603   1.266       .  A
C1594      O1599   1.263       .  A
O1595      C1601   1.269       .  A
O1595     Cd1598   2.481       .  S
C1596      O1604   1.263       .  A
C1597      C1813   1.488       .  S
C1597      O1602   1.270       .  A
C1597      O1600   1.262       .  A
Cd1598     O1605   2.466       .  S
Cd1598     O1604   2.478       .  S
Cd1598     O1603   2.503       .  S
Cd1598     O1599   2.435       .  S
Cd1598     O1602   2.510       .  S
Cd1598     O1600   2.423       .  S
C1601      C1828   1.496       .  S
C1601      O1605   1.267       .  A
O1606      C1609   1.267       .  A
O1606     Cd1611   2.500       .  S
C1607      O1616   1.264       .  A
C1607      O1612   1.265       .  A
O1608      C1614   1.269       .  A
O1608     Cd1611   2.504       .  S
C1609      C1840   1.478       .  S
C1609      O1617   1.263       .  A
C1610      C1789   1.496       .  S
C1610      O1615   1.271       .  A
C1610      O1613   1.264       .  A
Cd1611     O1618   2.442       .  S
Cd1611     O1617   2.444       .  S
Cd1611     O1616   2.478       .  S
Cd1611     O1612   2.506       .  S
Cd1611     O1615   2.501       .  S
Cd1611     O1613   2.446       .  S
C1614      C1804   1.494       .  S
C1614      O1618   1.264       .  A
O1619      C1622   1.265       .  A
O1619     Cd1624   2.504       .  S
C1620      O1629   1.265       .  A
C1620      O1625   1.264       .  A
O1621      C1627   1.269       .  A
C1622      C1780   1.480       .  S
C1622      O1630   1.261       .  A
C1623      C1816   1.494       .  S
C1623      O1628   1.271       .  A
C1623      O1626   1.265       .  A
Cd1624     O1630   2.454       .  S
Cd1624     O1629   2.478       .  S
Cd1624     O1625   2.483       .  S
Cd1624     O1628   2.486       .  S
Cd1624     O1626   2.458       .  S
C1627      C1825   1.497       .  S
C1627      O1631   1.264       .  A
O1632      C1635   1.262       .  A
O1632     Cd1637   2.454       .  S
C1633      C1649   1.494       .  S
C1633      O1642   1.265   1_655  A
C1633      O1638   1.266       .  A
O1634      C1640   1.270       .  A
C1635      C1777   1.478       .  S
C1635      O1643   1.266   1_655  A
C1636      C1801   1.491       .  S
C1636      O1641   1.269       .  A
C1636      O1639   1.266       .  A
Cd1637     O1643   2.494   1_655  S
Cd1637     O1642   2.480   1_655  S
Cd1637     O1638   2.498       .  S
Cd1637     O1641   2.478       .  S
Cd1637     O1639   2.456       .  S
C1640      C1792   1.497       .  S
C1640      O1644   1.263       .  A
C1645      C1646   1.425   1_455  A
C1646      C1680   1.497       .  S
C1647      C1648   1.410   1_545  A
C1647      H1652   1.085       .  S
C1648      C1649   1.422       .  A
C1650      H1651   1.085       .  S
O1653      C1656   1.262       .  A
O1653     Cd1658   2.476       .  S
C1654      O1663   1.263       .  A
C1654      O1659   1.265       .  A
O1655      C1661   1.269       .  A
O1655     Cd1658   2.501       .  S
C1656      C1768   1.487       .  S
C1656      O1664   1.266       .  A
C1657      C1741   1.499       .  S
C1657      O1662   1.268       .  A
C1657      O1660   1.266       .  A
Cd1658     O1665   2.482       .  S
Cd1658     O1664   2.492       .  S
Cd1658     O1663   2.489       .  S
Cd1658     O1659   2.494       .  S
Cd1658     O1662   2.479       .  S
Cd1658     O1660   2.484       .  S
C1661      C1756   1.500       .  S
C1661      O1665   1.265       .  A
O1666      C1669   1.262       .  A
O1666     Cd1671   2.438       .  S
C1667      O1676   1.265       .  A
C1667      O1672   1.265       .  A
O1668      C1674   1.269       .  A
O1668     Cd1671   2.494       .  S
C1669      C1765   1.478       .  S
C1669      O1677   1.266       .  A
C1670      C1732   1.493       .  S
C1670      O1675   1.270       .  A
C1670      O1673   1.265       .  A
Cd1671     O1678   2.442       .  S
Cd1671     O1677   2.514       .  S
Cd1671     O1676   2.476       .  S
Cd1671     O1672   2.479       .  S
Cd1671     O1675   2.497       .  S
Cd1671     O1673   2.437       .  S
C1674      C1717   1.494       .  S
C1674      O1678   1.263       .  A
O1679      C1682   1.266   1_455  A
O1679     Cd1684   2.515   1_455  S
C1680      O1689   1.264   1_655  A
C1680      O1685   1.264       .  A
O1681      C1687   1.268       .  A
C1682      C1705   1.481   1_655  S
C1682      O1690   1.261       .  A
C1683      C1753   1.492       .  S
C1683      O1688   1.269       .  A
C1683      O1686   1.266       .  A
Cd1684     O1690   2.456       .  S
Cd1684     O1689   2.485   1_655  S
Cd1684     O1685   2.494       .  S
Cd1684     O1688   2.487       .  S
Cd1684     O1686   2.465       .  S
C1687      C1744   1.498       .  S
C1687      O1691   1.265       .  A
O1692      C1695   1.262       .  A
O1692     Cd1697   2.466       .  S
C1693      O1702   1.265       .  A
C1693      O1698   1.264       .  A
O1694      C1700   1.269       .  A
C1695      C1708   1.483       .  S
C1695      O1703   1.265       .  A
C1696      C1720   1.495       .  S
C1696      O1701   1.270       .  A
C1696      O1699   1.265       .  A
Cd1697     O1703   2.480       .  S
Cd1697     O1702   2.490       .  S
Cd1697     O1698   2.489       .  S
Cd1697     O1701   2.506       .  S
Cd1697     O1699   2.448       .  S
C1700      C1729   1.496       .  S
C1700      O1704   1.264       .  A
C1705      C1710   1.412   1_455  A
C1706      C1707   1.404       .  A
C1706      H1711   1.084       .  S
C1707      C1708   1.415       .  A
C1707      C1714   1.444       .  S
C1709      C1710   1.399       .  A
C1709      H1712   1.084       .  S
C1710      C1713   1.443       .  S
C1713      N1715   1.157       .  T
C1714      N1716   1.157       .  T
C1717      C1718   1.404       .  A
C1717      C1722   1.419       .  A
C1718      C1719   1.402       .  A
C1718      H1723   1.085       .  S
C1719      C1720   1.419       .  A
C1719      C1726   1.444       .  S
C1720      C1721   1.405       .  A
C1721      C1722   1.405       .  A
C1721      H1724   1.085       .  S
C1722      C1725   1.445       .  S
C1725      N1727   1.158       .  T
C1726      N1728   1.157       .  T
C1729      C1730   1.411       .  A
C1729      C1734   1.414       .  A
C1730      C1731   1.406       .  A
C1730      H1735   1.083       .  S
C1731      C1732   1.414       .  A
C1731      C1738   1.445       .  S
C1732      C1733   1.407       .  A
C1733      C1734   1.401       .  A
C1733      H1736   1.083       .  S
C1734      C1737   1.444       .  S
C1737      N1739   1.157       .  T
C1738      N1740   1.158       .  T
C1741      C1742   1.409       .  A
C1741      C1746   1.416       .  A
C1742      C1743   1.406       .  A
C1742      H1747   1.085       .  S
C1743      C1744   1.416       .  A
C1743      C1750   1.444       .  S
C1744      C1745   1.407       .  A
C1745      C1746   1.404       .  A
C1745      H1748   1.085       .  S
C1746      C1749   1.444       .  S
C1749      N1751   1.157       .  T
C1750      N1752   1.157       .  T
C1753      C1754   1.407       .  A
C1753      C1758   1.412       .  A
C1754      C1755   1.405       .  A
C1754      H1759   1.082       .  S
C1755      C1756   1.416       .  A
C1755      C1762   1.444       .  S
C1756      C1757   1.411       .  A
C1757      C1758   1.406       .  A
C1757      H1760   1.082       .  S
C1758      C1761   1.444       .  S
C1761      N1763   1.157       .  T
C1762      N1764   1.157       .  T
C1765      C1766   1.403       .  A
C1765      C1770   1.409       .  A
C1766      H1771   1.085       .  S
C1767      C1768   1.417       .  A
C1767      C1774   1.444       .  S
C1768      C1769   1.405       .  A
C1769      H1772   1.084       .  S
C1770      C1773   1.444       .  S
C1773      N1775   1.157       .  T
C1774      N1776   1.157       .  T
C1777      C1782   1.412       .  A
C1778      C1779   1.401       .  A
C1778      H1783   1.085       .  S
C1779      C1780   1.412       .  A
C1779      C1786   1.444       .  S
C1781      C1782   1.403       .  A
C1781      H1784   1.084       .  S
C1782      C1785   1.444       .  S
C1785      N1787   1.157       .  T
C1786      N1788   1.157       .  T
C1789      C1790   1.405       .  A
C1789      C1794   1.419       .  A
C1790      C1791   1.404       .  A
C1790      H1795   1.085       .  S
C1791      C1792   1.420       .  A
C1791      C1798   1.445       .  S
C1792      C1793   1.406       .  A
C1793      C1794   1.404       .  A
C1793      H1796   1.084       .  S
C1794      C1797   1.445       .  S
C1797      N1799   1.158       .  T
C1798      N1800   1.158       .  T
C1801      C1802   1.408       .  A
C1801      C1806   1.413       .  A
C1802      C1803   1.404       .  A
C1802      H1807   1.083       .  S
C1803      C1804   1.415       .  A
C1803      C1810   1.444       .  S
C1804      C1805   1.409       .  A
C1805      C1806   1.402       .  A
C1805      H1808   1.083       .  S
C1806      C1809   1.444       .  S
C1809      N1811   1.157       .  T
C1810      N1812   1.157       .  T
C1813      C1814   1.404       .  A
C1813      C1818   1.416       .  A
C1814      C1815   1.405       .  A
C1814      H1819   1.085       .  S
C1815      C1816   1.420       .  A
C1815      C1822   1.444       .  S
C1816      C1817   1.405       .  A
C1817      C1818   1.400       .  A
C1817      H1820   1.084       .  S
C1818      C1821   1.445       .  S
C1821      N1823   1.157       .  T
C1822      N1824   1.158       .  T
C1825      C1826   1.409       .  A
C1825      C1830   1.415       .  A
C1826      C1827   1.404       .  A
C1826      H1831   1.083       .  S
C1827      C1828   1.415       .  A
C1827      C1834   1.444       .  S
C1828      C1829   1.409       .  A
C1829      C1830   1.405       .  A
C1829      H1832   1.083       .  S
C1830      C1833   1.444       .  S
C1833      N1835   1.157       .  T
C1834      N1836   1.157       .  T
C1837      C1838   1.405       .  A
C1837      C1842   1.415       .  A
C1838      H1843   1.085       .  S
C1839      C1840   1.411       .  A
C1839      C1846   1.444       .  S
C1840      C1841   1.404       .  A
C1841      H1844   1.085       .  S
C1842      C1845   1.444       .  S
C1845      N1847   1.157       .  T
C1846      N1848   1.157       .  T
C1849      C1854   1.412       .  A
C1849      C1931   1.492       .  S
C1850      C1851   1.409       .  A
C1850      C1871   1.495       .  S
C1851      C1852   1.409       .  A
C1851      H1856   1.085       .  S
C1852      C1860   1.492       .  S
C1853      C1854   1.410       .  A
C1853      C1918   1.493       .  S
C1854      H1855   1.085       .  S
O1857      C1860   1.265       .  A
O1857     Cd1862   2.497       .  S
C1858      C2101   1.482       .  S
C1858      O1867   1.266       .  A
C1858      O1863   1.263       .  A
O1859      C1865   1.269       .  A
O1859     Cd1862   2.481       .  S
C1860      O1868   1.263       .  A
C1861      C2077   1.488       .  S
C1861      O1866   1.270       .  A
C1861      O1864   1.262       .  A
Cd1862     O1869   2.466       .  S
Cd1862     O1868   2.478       .  S
Cd1862     O1867   2.503       .  S
Cd1862     O1863   2.435       .  S
Cd1862     O1866   2.510       .  S
Cd1862     O1864   2.423       .  S
C1865      C2092   1.496       .  S
C1865      O1869   1.267       .  A
O1870      C1873   1.267       .  A
O1870     Cd1875   2.500       .  S
C1871      O1880   1.264       .  A
C1871      O1876   1.265       .  A
O1872      C1878   1.269       .  A
O1872     Cd1875   2.504       .  S
C1873      C2104   1.478       .  S
C1873      O1881   1.263       .  A
C1874      C2053   1.496       .  S
C1874      O1879   1.271       .  A
C1874      O1877   1.264       .  A
Cd1875     O1882   2.442       .  S
Cd1875     O1881   2.444       .  S
Cd1875     O1880   2.478       .  S
Cd1875     O1876   2.506       .  S
Cd1875     O1879   2.501       .  S
Cd1875     O1877   2.446       .  S
C1878      C2068   1.494       .  S
C1878      O1882   1.264       .  A
O1883      C1886   1.265       .  A
O1883     Cd1888   2.504       .  S
C1884      O1893   1.265       .  A
C1884      O1889   1.264       .  A
O1885      C1891   1.269       .  A
C1886      C2044   1.480       .  S
C1886      O1894   1.261       .  A
C1887      C2080   1.494       .  S
C1887      O1892   1.271       .  A
C1887      O1890   1.265       .  A
Cd1888     O1894   2.454       .  S
Cd1888     O1893   2.478       .  S
Cd1888     O1889   2.483       .  S
Cd1888     O1892   2.486       .  S
Cd1888     O1890   2.458       .  S
C1891      C2089   1.497       .  S
C1891      O1895   1.264       .  A
O1896      C1899   1.262       .  A
O1896     Cd1901   2.454       .  S
C1897      C1913   1.494       .  S
C1897      O1906   1.265   1_655  A
C1897      O1902   1.266       .  A
O1898      C1904   1.270       .  A
C1899      C2041   1.478       .  S
C1899      O1907   1.266   1_655  A
C1900      C2065   1.491       .  S
C1900      O1905   1.269       .  A
C1900      O1903   1.266       .  A
Cd1901     O1907   2.494   1_655  S
Cd1901     O1906   2.480   1_655  S
Cd1901     O1902   2.498       .  S
Cd1901     O1905   2.478       .  S
Cd1901     O1903   2.456       .  S
C1904      C2056   1.497       .  S
C1904      O1908   1.263       .  A
C1909      C1910   1.425   1_455  A
C1910      C1944   1.497       .  S
C1911      C1912   1.410   1_545  A
C1911      H1916   1.085       .  S
C1912      C1913   1.422       .  A
C1914      H1915   1.085       .  S
O1917      C1920   1.262       .  A
O1917     Cd1922   2.476       .  S
C1918      O1927   1.263       .  A
C1918      O1923   1.265       .  A
O1919      C1925   1.269       .  A
O1919     Cd1922   2.501       .  S
C1920      C2032   1.487       .  S
C1920      O1928   1.266       .  A
C1921      C2005   1.499       .  S
C1921      O1926   1.268       .  A
C1921      O1924   1.266       .  A
Cd1922     O1929   2.482       .  S
Cd1922     O1928   2.492       .  S
Cd1922     O1927   2.489       .  S
Cd1922     O1923   2.494       .  S
Cd1922     O1926   2.479       .  S
Cd1922     O1924   2.484       .  S
C1925      C2020   1.500       .  S
C1925      O1929   1.265       .  A
O1930      C1933   1.262       .  A
O1930     Cd1935   2.438       .  S
C1931      O1940   1.265       .  A
C1931      O1936   1.265       .  A
O1932      C1938   1.269       .  A
O1932     Cd1935   2.494       .  S
C1933      C2029   1.478       .  S
C1933      O1941   1.266       .  A
C1934      C1996   1.493       .  S
C1934      O1939   1.270       .  A
C1934      O1937   1.265       .  A
Cd1935     O1942   2.442       .  S
Cd1935     O1941   2.514       .  S
Cd1935     O1940   2.476       .  S
Cd1935     O1936   2.479       .  S
Cd1935     O1939   2.497       .  S
Cd1935     O1937   2.437       .  S
C1938      C1981   1.494       .  S
C1938      O1942   1.263       .  A
O1943      C1946   1.266   1_455  A
O1943     Cd1948   2.515   1_455  S
C1944      O1953   1.264   1_655  A
C1944      O1949   1.264       .  A
O1945      C1951   1.268       .  A
C1946      C1969   1.481   1_655  S
C1946      O1954   1.261       .  A
C1947      C2017   1.492       .  S
C1947      O1952   1.269       .  A
C1947      O1950   1.266       .  A
Cd1948     O1954   2.456       .  S
Cd1948     O1953   2.485   1_655  S
Cd1948     O1949   2.494       .  S
Cd1948     O1952   2.487       .  S
Cd1948     O1950   2.465       .  S
C1951      C2008   1.498       .  S
C1951      O1955   1.265       .  A
O1956      C1959   1.262       .  A
O1956     Cd1961   2.465       .  S
C1957      O1966   1.265       .  A
C1957      O1962   1.264       .  A
O1958      C1964   1.269       .  A
C1959      C1972   1.483       .  S
C1959      O1967   1.265       .  A
C1960      C1984   1.495       .  S
C1960      O1965   1.270       .  A
C1960      O1963   1.265       .  A
Cd1961     O1967   2.480       .  S
Cd1961     O1966   2.490       .  S
Cd1961     O1962   2.489       .  S
Cd1961     O1965   2.506       .  S
Cd1961     O1963   2.448       .  S
C1964      C1993   1.496       .  S
C1964      O1968   1.264       .  A
C1969      C1974   1.412   1_455  A
C1970      C1971   1.404       .  A
C1970      H1975   1.084       .  S
C1971      C1972   1.415       .  A
C1971      C1978   1.444       .  S
C1973      C1974   1.399       .  A
C1973      H1976   1.084       .  S
C1974      C1977   1.443       .  S
C1977      N1979   1.157       .  T
C1978      N1980   1.157       .  T
C1981      C1982   1.404       .  A
C1981      C1986   1.419       .  A
C1982      C1983   1.402       .  A
C1982      H1987   1.085       .  S
C1983      C1984   1.419       .  A
C1983      C1990   1.444       .  S
C1984      C1985   1.405       .  A
C1985      C1986   1.405       .  A
C1985      H1988   1.085       .  S
C1986      C1989   1.445       .  S
C1989      N1991   1.158       .  T
C1990      N1992   1.157       .  T
C1993      C1994   1.411       .  A
C1993      C1998   1.414       .  A
C1994      C1995   1.406       .  A
C1994      H1999   1.083       .  S
C1995      C1996   1.414       .  A
C1995      C2002   1.445       .  S
C1996      C1997   1.407       .  A
C1997      C1998   1.401       .  A
C1997      H2000   1.083       .  S
C1998      C2001   1.444       .  S
C2001      N2003   1.157       .  T
C2002      N2004   1.158       .  T
C2005      C2006   1.409       .  A
C2005      C2010   1.416       .  A
C2006      C2007   1.406       .  A
C2006      H2011   1.085       .  S
C2007      C2008   1.416       .  A
C2007      C2014   1.444       .  S
C2008      C2009   1.407       .  A
C2009      C2010   1.404       .  A
C2009      H2012   1.085       .  S
C2010      C2013   1.444       .  S
C2013      N2015   1.157       .  T
C2014      N2016   1.157       .  T
C2017      C2018   1.407       .  A
C2017      C2022   1.412       .  A
C2018      C2019   1.405       .  A
C2018      H2023   1.082       .  S
C2019      C2020   1.416       .  A
C2019      C2026   1.444       .  S
C2020      C2021   1.411       .  A
C2021      C2022   1.406       .  A
C2021      H2024   1.082       .  S
C2022      C2025   1.444       .  S
C2025      N2027   1.157       .  T
C2026      N2028   1.157       .  T
C2029      C2030   1.403       .  A
C2029      C2034   1.409       .  A
C2030      H2035   1.085       .  S
C2031      C2032   1.417       .  A
C2031      C2038   1.444       .  S
C2032      C2033   1.405       .  A
C2033      H2036   1.084       .  S
C2034      C2037   1.444       .  S
C2037      N2039   1.157       .  T
C2038      N2040   1.157       .  T
C2041      C2046   1.412       .  A
C2042      C2043   1.401       .  A
C2042      H2047   1.084       .  S
C2043      C2044   1.412       .  A
C2043      C2050   1.444       .  S
C2045      C2046   1.403       .  A
C2045      H2048   1.084       .  S
C2046      C2049   1.444       .  S
C2049      N2051   1.157       .  T
C2050      N2052   1.157       .  T
C2053      C2054   1.405       .  A
C2053      C2058   1.419       .  A
C2054      C2055   1.404       .  A
C2054      H2059   1.085       .  S
C2055      C2056   1.420       .  A
C2055      C2062   1.445       .  S
C2056      C2057   1.406       .  A
C2057      C2058   1.404       .  A
C2057      H2060   1.084       .  S
C2058      C2061   1.445       .  S
C2061      N2063   1.158       .  T
C2062      N2064   1.158       .  T
C2065      C2066   1.408       .  A
C2065      C2070   1.413       .  A
C2066      C2067   1.404       .  A
C2066      H2071   1.083       .  S
C2067      C2068   1.415       .  A
C2067      C2074   1.444       .  S
C2068      C2069   1.409       .  A
C2069      C2070   1.402       .  A
C2069      H2072   1.083       .  S
C2070      C2073   1.444       .  S
C2073      N2075   1.157       .  T
C2074      N2076   1.157       .  T
C2077      C2078   1.404       .  A
C2077      C2082   1.416       .  A
C2078      C2079   1.405       .  A
C2078      H2083   1.085       .  S
C2079      C2080   1.420       .  A
C2079      C2086   1.444       .  S
C2080      C2081   1.405       .  A
C2081      C2082   1.400       .  A
C2081      H2084   1.084       .  S
C2082      C2085   1.445       .  S
C2085      N2087   1.157       .  T
C2086      N2088   1.158       .  T
C2089      C2090   1.409       .  A
C2089      C2094   1.415       .  A
C2090      C2091   1.404       .  A
C2090      H2095   1.083       .  S
C2091      C2092   1.415       .  A
C2091      C2098   1.444       .  S
C2092      C2093   1.409       .  A
C2093      C2094   1.405       .  A
C2093      H2096   1.083       .  S
C2094      C2097   1.444       .  S
C2097      N2099   1.157       .  T
C2098      N2100   1.157       .  T
C2101      C2102   1.405       .  A
C2101      C2106   1.415       .  A
C2102      H2107   1.085       .  S
C2103      C2104   1.411       .  A
C2103      C2110   1.444       .  S
C2104      C2105   1.404       .  A
C2105      H2108   1.085       .  S
C2106      C2109   1.444       .  S
C2109      N2111   1.157       .  T
C2110      N2112   1.157       .  T
