geometry optimzed in LAMMPS
_audit_creation_date              2020-12-01 
_audit_creation_method            'lammps2cif' 
_symmetry_space_group_name_H-M    'P1' 
_symmetry_Int_Tables_number       1 
_symmetry_cell_setting            triclinic 
loop_ 
_symmetry_equiv_pos_as_xyz 
  x,y,z 
_cell_length_a                    17.94717611 
_cell_length_b                    38.779642859773624 
_cell_length_c                    19.138019697586806 
_cell_angle_alpha                 87.02891120435301 
_cell_angle_beta                  89.7094524193426 
_cell_angle_gamma                 90.78956649241542 
loop_ 
_atom_site_label 
_atom_site_type_symbol 
_atom_site_fract_x 
_atom_site_fract_y 
_atom_site_fract_z 
_atom_site_charge 
C1          C  0.13409799  0.08075314  0.21705063     0.86800
C2          C  0.18940724  0.10408552  0.17353321    -0.53400
C3          C  0.23518171  0.12399233  0.21113079     0.09800
C4          C  0.22220007  0.11753695  0.29144270     0.20700
C5          C  0.18334890  0.05880522  0.26724156    -0.54100
C6          C  0.23159583  0.07713059  0.30548179     0.09900
C7          C  0.09122072  0.10566337  0.26296184    -0.53700
C8          C  0.13635741  0.12593530  0.30194132     0.10400
H9          H  0.19172455  0.10527975  0.11674308     0.14900
H10         H  0.26025566  0.13337175  0.32273702     0.00700
H11         H  0.18301436  0.03086341  0.26880992     0.15200
H12         H  0.03157984  0.10929760  0.25902384     0.15000
C13         C  0.11182721  0.16057391  0.33351483     0.30300
C14         C  0.11497164  0.22530962  0.38510912     0.30300
C15         C  0.15291108  0.18877998  0.29023071    -0.05900
C16         C  0.03314045  0.17777259  0.33880002    -0.06600
C17         C  0.13774654  0.16298815  0.40940546    -0.06500
C18         C  0.15702282  0.22124363  0.31778766    -0.05900
C19         C  0.03475611  0.21132885  0.36624040    -0.06600
C20         C  0.14056525  0.19624639  0.43504267    -0.06500
C21         C  0.15510329  0.24476998  0.26207826    -0.31900
N22         N  0.14946317  0.22862390  0.20205806     0.14600
C23         C  0.14482815  0.19465934  0.21880206    -0.31900
H24         H  0.12617054  0.17566306  0.18320736     0.16500
C25         C  0.96087296  0.22082607  0.37431659    -0.30900
N26         N  0.91533365  0.19530343  0.35231515     0.13300
C27         C  0.95833234  0.16905372  0.33029853    -0.30900
C28         C  0.11888590  0.19268086  0.50432628    -0.31200
N29         N  0.10682189  0.15933431  0.52467460     0.13800
H30         H  0.09893991  0.21364966  0.53404035     0.16500
C31         C  0.11232461  0.14194760  0.46554457    -0.31200
H32         H  0.08683246  0.11668057  0.46113693     0.16500
H33         H  0.93669169  0.14491660  0.31236661     0.16500
H34         H  0.14203837  0.27107435  0.26679511     0.16500
H35         H  0.94028442  0.24411993  0.39532816     0.16500
C36         C  0.11328681  0.31529276  0.46717622     0.86800
C37         C  0.16244423  0.30092220  0.52810750    -0.53400
C38         C  0.21813813  0.27989169  0.50803293     0.09800
C39         C  0.21694834  0.27483306  0.42765026     0.20700
C40         C  0.16761095  0.33316879  0.41449605    -0.54100
C41         C  0.22468280  0.31309554  0.39398795     0.09900
C42         C  0.08292153  0.28349134  0.43286394    -0.53700
C43         C  0.13500695  0.26122096  0.41317278     0.10400
H44         H  0.15272108  0.30599961  0.58237560     0.14900
H45         H  0.25880222  0.25661151  0.40959279     0.00700
H46         H  0.16105871  0.35973811  0.39599149     0.15200
H47         H  0.02404012  0.27866665  0.42842803     0.15000
C48         C  0.41773155  0.04683974  0.43295575     0.30300
C49         C  0.29524385  0.06033786  0.35013239     0.30300
C50         C  0.43132117  0.06744308  0.36349727    -0.05900
C51         C  0.37784413  0.01408070  0.40721314    -0.06600
C52         C  0.35318380  0.06500091  0.46680143    -0.06500
C53         C  0.37074521  0.07396235  0.32176074    -0.05900
C54         C  0.31415245  0.02046146  0.36429931    -0.06600
C55         C  0.29240171  0.07260160  0.42533532    -0.06500
C56         C  0.39941449  0.08595523  0.25762106    -0.31900
N57         N  0.47365557  0.09309262  0.26365300     0.14600
C58         C  0.49397049  0.07784574  0.32567600    -0.31900
H59         H  0.54989864  0.07179673  0.34054286     0.18400
C60         C  0.27667300  0.48770921  0.33650565    -0.30900
N61         N  0.32441829  0.46282770  0.36288415     0.13300
C62         C  0.37381860  0.47826015  0.40554647    -0.30900
C63         C  0.23651384  0.08113326  0.47059991    -0.31200
N64         N  0.26133241  0.08010697  0.53763548     0.13800
H65         H  0.17893713  0.08493569  0.45527613     0.16500
C66         C  0.33139089  0.06766629  0.53567319    -0.31200
H67         H  0.36425699  0.06041039  0.58097106     0.16500
H68         H  0.42035974  0.46539644  0.43077240     0.16500
H69         H  0.36840705  0.08817549  0.20948423     0.16500
H70         H  0.23428697  0.48310509  0.29801810     0.16500
C71         C  0.63072446  0.11987996  0.13625930     0.86800
C72         C  0.66598342  0.14328104  0.18985813    -0.53400
C73         C  0.61667440  0.15962145  0.22928417     0.09800
C74         C  0.53409675  0.15265581  0.20691476     0.20700
C75         C  0.57468911  0.09594189  0.17719840    -0.54100
C76         C  0.52351918  0.11234618  0.21456043     0.09900
C77         C  0.58183521  0.14394193  0.08897811    -0.53700
C78         C  0.52970829  0.16180760  0.12515865     0.10400
H79         H  0.72523593  0.14414897  0.19919082     0.14900
H80         H  0.49540851  0.16719669  0.23912605     0.00700
H81         H  0.57717746  0.06792908  0.17860115     0.15200
H82         H  0.58684941  0.14566647  0.03251583     0.15000
C83         C  0.16206615  0.11375483  0.69843933     0.86800
C84         C  0.10738655  0.13265350  0.64637087    -0.53400
C85         C  0.14241771  0.14547939  0.58666292     0.09800
C86         C  0.22560125  0.13946405  0.58512577     0.20700
C87         C  0.20073479  0.08640653  0.65448155    -0.54100
C88         C  0.23147957  0.10003928  0.59335614     0.09900
C89         C  0.22209091  0.14106953  0.71151358    -0.53700
C90         C  0.25601804  0.15456376  0.65332539     0.10400
H91         H  0.04802341  0.13530675  0.65413891     0.14900
H92         H  0.25264513  0.15033674  0.53632041     0.00700
H93         H  0.20023126  0.05892201  0.66856011     0.15200
H94         H  0.23519020  0.14920193  0.76309989     0.15000
C95         C  0.63817087  0.20946085  0.42104216     0.30300
C96         C  0.63740774  0.17777169  0.29670847     0.30300
C97         C  0.59874203  0.22791326  0.36069972    -0.05900
C98         C  0.71784042  0.20527880  0.38698584    -0.06600
C99         C  0.61158930  0.17188533  0.42422854    -0.06500
C100        C  0.59668349  0.21164246  0.29784741    -0.05900
C101        C  0.71708837  0.18838937  0.32246100    -0.06600
C102        C  0.60994878  0.15594057  0.36032713    -0.06500
C103        C  0.60027600  0.23762597  0.24638488    -0.31900
N104        N  0.60171821  0.26855650  0.27481541     0.14600
C105        C  0.60568993  0.26284282  0.34391270    -0.31900
H106        H  0.62375652  0.28224479  0.37870728     0.16500
C107        C  0.79081175  0.18304265  0.30407665    -0.30900
N108        N  0.83603385  0.19606710  0.35340126     0.13300
C109        C  0.79266256  0.20972994  0.40384394    -0.30900
C110        C  0.62964657  0.12203201  0.37499371    -0.31200
N111        N  0.63884423  0.11539434  0.44420352     0.13800
H112        H  0.64690394  0.10448211  0.33609197     0.16500
C113        C  0.63505385  0.14644941  0.47255543    -0.31200
H114        H  0.65503233  0.15073840  0.52465371     0.16500
H115        H  0.81408700  0.22063240  0.45068465     0.16500
H116        H  0.61952197  0.23376109  0.19443945     0.16500
H117        H  0.81094621  0.17037959  0.25893657     0.16500
C118        C  0.60750535  0.35384273  0.16972466     0.86800
C119        C  0.57589282  0.33271680  0.10850174    -0.53400
C120        C  0.52452872  0.30820544  0.13006023     0.09800
C121        C  0.50878437  0.30735755  0.20809359     0.20700
C122        C  0.53893239  0.36911624  0.20627239    -0.54100
C123        C  0.48692143  0.34460980  0.22688288     0.09900
C124        C  0.63677400  0.32540268  0.22164716    -0.53700
C125        C  0.58496470  0.30087311  0.23974998     0.10400
H126        H  0.59663053  0.33415824  0.05528313     0.14900
H127        H  0.46784604  0.28677651  0.22499273     0.00700
H128        H  0.53398047  0.39613997  0.21738460     0.15200
H129        H  0.69446978  0.32328683  0.23804276     0.15000
C130        C  0.57250033  0.04567053  0.57707565     0.86800
C131        C  0.52862339  0.07510597  0.60808590    -0.53400
C132        C  0.50286895  0.09790956  0.55985537     0.09800
C133        C  0.51588144  0.08863914  0.48519206     0.20700
C134        C  0.51558712  0.02816828  0.52846534    -0.54100
C135        C  0.48578883  0.05115094  0.47947482     0.09900
C136        C  0.63086377  0.06419810  0.52704927    -0.53700
C137        C  0.59984277  0.08684457  0.47905792     0.10400
H138        H  0.52140811  0.07872107  0.66367346     0.14900
H139        H  0.49131673  0.10848082  0.44864706     0.00700
H140        H  0.49710292  0.00146060  0.53549764     0.15200
H141        H  0.69023500  0.06275926  0.53311201     0.15000
C142        C  0.29243329  0.32863703  0.35033358     0.30300
C143        C  0.41662998  0.34819968  0.27168495     0.30300
C144        C  0.28904246  0.32141896  0.27251594    -0.05900
C145        C  0.31199022  0.36930852  0.34495406    -0.06600
C146        C  0.36822008  0.31257731  0.37317921    -0.06500
C147        C  0.35219758  0.33062224  0.23371901    -0.05900
C148        C  0.37578670  0.37894750  0.30337920    -0.06600
C149        C  0.42945670  0.32589548  0.33791587    -0.06500
C150        C  0.33253594  0.33136584  0.16399866    -0.31900
N151        N  0.25989541  0.32224654  0.15764165     0.14600
C152        C  0.23218660  0.32007329  0.22401600    -0.31900
H153        H  0.17355592  0.32082881  0.23559115     0.16500
C154        C  0.38462461  0.41465359  0.30436948    -0.30900
N155        N  0.32885093  0.42774007  0.34344161     0.13300
C156        C  0.28542181  0.40058430  0.36929133    -0.30900
C157        C  0.49184568  0.31714321  0.37609110    -0.31200
N158        N  0.47273751  0.29285968  0.42639980     0.13800
H159        H  0.54729768  0.32769604  0.36695484     0.16500
C160        C  0.39761367  0.28842989  0.42154500    -0.31200
H161        H  0.36792725  0.26744989  0.44688167     0.16500
H162        H  0.23962828  0.40351964  0.40519287     0.16500
H163        H  0.36868309  0.33927433  0.12068514     0.16500
H164        H  0.42916036  0.42993002  0.27950668     0.16500
C165        C  0.16041586  0.27092618  0.01919563     0.86800
C166        C  0.12278908  0.25006417  0.08088361    -0.53400
C167        C  0.17011507  0.24425731  0.13550976     0.09800
C168        C  0.24838935  0.25907456  0.12354786     0.20700
C169        C  0.19051569  0.30434076  0.05187057    -0.54100
C170        C  0.23636224  0.29757328  0.10776533     0.09900
C171        C  0.22891539  0.24985729  0.00066730    -0.53700
C172        C  0.27558474  0.24416767  0.05462465     0.10400
H173        H  0.06481564  0.24170198  0.08213004     0.14900
H174        H  0.28528039  0.25368732  0.16919060     0.00700
H175        H  0.17318140  0.33020497  0.03550044     0.15200
H176        H  0.23684786  0.23903194  0.95027983     0.15000
C177        C  0.62264242  0.27528168  0.56524972     0.86800
C178        C  0.66050973  0.24788147  0.52325833    -0.53400
C179        C  0.61260304  0.22867757  0.48641209     0.09800
C180        C  0.52741686  0.23851766  0.49978796     0.20700
C181        C  0.57465906  0.29645372  0.51216236    -0.54100
C182        C  0.52307209  0.27738438  0.47842007     0.09900
C183        C  0.56504031  0.25627995  0.61452683    -0.53700
C184        C  0.51342938  0.23757241  0.58121253     0.10400
H185        H  0.72047406  0.24671363  0.51713869     0.14900
H186        H  0.48687680  0.22293688  0.47064164     0.00700
H187        H  0.58002744  0.32424464  0.50294254     0.15200
H188        H  0.56274228  0.25916849  0.67047685     0.15000
C189        C  0.46646157  0.18443716  0.09061297     0.30300
C190        C  0.34405182  0.22227557  0.05440019     0.30300
C191        C  0.47015597  0.22286064  0.10792128    -0.05900
C192        C  0.44936716  0.18879862  0.00770249    -0.06600
C193        C  0.38960423  0.17228899  0.12268330    -0.06500
C194        C  0.40610415  0.24138267  0.09115851    -0.05900
C195        C  0.38618334  0.20923506  0.99155571    -0.06600
C196        C  0.32893596  0.18923385  0.09728598    -0.06500
C197        C  0.42638645  0.27547026  0.07907037    -0.31900
N198        N  0.49963809  0.27996370  0.08951584     0.14600
C199        C  0.52710292  0.24756108  0.09970548    -0.31900
H200        H  0.58517106  0.24191693  0.09157696     0.16500
C201        C  0.38129567  0.21502932  0.92037178    -0.30900
N202        N  0.43714960  0.19858132  0.88896248     0.13300
C203        C  0.47875083  0.18201381  0.94079698    -0.30900
C204        C  0.26576268  0.17240596  0.12276551    -0.31200
N205        N  0.28475376  0.14980666  0.17577416     0.13800
H206        H  0.21047344  0.17636789  0.10244215     0.16500
C207        C  0.36025698  0.15207741  0.17886161    -0.31200
H208        H  0.39001299  0.14443782  0.22424288     0.16500
H209        H  0.52627658  0.16617434  0.93064717     0.16500
H210        H  0.39065863  0.29537592  0.05747362     0.16500
H211        H  0.33953909  0.22978730  0.89215645     0.16500
C212        C  0.44609139  0.21877895  0.61773206     0.30300
C213        C  0.32319740  0.17886856  0.65215984     0.30300
C214        C  0.44009665  0.18384972  0.58507357    -0.05900
C215        C  0.43771676  0.20776461  0.69883270    -0.06600
C216        C  0.36912916  0.23518576  0.60115177    -0.06500
C217        C  0.37862112  0.16375145  0.60429698    -0.05900
C218        C  0.37394739  0.18692086  0.71517577    -0.06600
C219        C  0.30782182  0.21442073  0.61807987    -0.06500
C220        C  0.39950116  0.13011691  0.60437045    -0.31900
N221        N  0.46762678  0.12875990  0.57720919     0.14600
C222        C  0.49508742  0.16120103  0.56987834    -0.31900
H223        H  0.55279268  0.16802979  0.56625314     0.16500
C224        C  0.37551156  0.17804144  0.78609760    -0.30900
N225        N  0.43562853  0.19290311  0.81586431     0.13300
C226        C  0.47349569  0.21161292  0.76355361    -0.30900
C227        C  0.24538636  0.23096689  0.59324942    -0.31200
N228        N  0.26560899  0.26093356  0.55830279     0.13800
H229        H  0.18947494  0.22167039  0.60127910     0.16500
C230        C  0.34057140  0.26504747  0.56863951    -0.31200
H231        H  0.37278074  0.28778771  0.55234762     0.16500
H232        H  0.52132157  0.22802540  0.77241772     0.16500
H233        H  0.37168686  0.10886870  0.63245189     0.16500
H234        H  0.33398890  0.16334681  0.81613095     0.16500
O235        O  0.06031273  0.45458785  0.79470099    -0.79800
O236        O  0.78015483  0.49181968  0.88983513    -0.79800
O237        O  0.83501909  0.47709593  0.65488691    -0.79800
O238        O  0.91783441  0.43221557  0.96593407    -0.79800
O239        O  0.80921594  0.50600141  0.74491858    -0.79900
O240        O  0.95702829  0.47363416  0.89078485    -0.79800
O241        O  0.77163313  0.44472035  0.96021246    -0.79800
O242        O  0.97005795  0.48542176  0.74370059    -0.79800
C243        C  0.03648947  0.48336278  0.76978523     1.09900
C244        C  0.76231219  0.47693815  0.94840771     1.09800
C245        C  0.81015439  0.50368857  0.67875080     1.09900
C246        C  0.94729410  0.46182604  0.95307474     1.09800
O247        O  0.00094890  0.40410298  0.88372223    -0.79800
O248        O  0.72644747  0.44210463  0.71877348    -0.79900
O249        O  0.95826054  0.42987649  0.65519760    -0.79800
O250        O  0.74745563  0.38733390  0.87299031    -0.79800
O251        O  0.68657963  0.43582634  0.85733108    -0.79800
O252        O  0.97225290  0.40082721  0.75194445    -0.79800
O253        O  0.89922400  0.37289669  0.88128116    -0.79800
O254        O  0.82420723  0.40869367  0.70919244    -0.79800
Co255      Co  0.96109261  0.44010957  0.81674996     1.51500
Co256      Co  0.75818418  0.46747878  0.80393387     1.51700
Co257      Co  0.88986506  0.44867019  0.72091338     1.51600
Co258      Co  0.83517296  0.40999094  0.91338972     1.51500
O259        O  0.85158307  0.43734130  0.82047203    -1.41700
C260        C  0.96726969  0.37573003  0.89689717     1.09800
C261        C  0.75746979  0.41583041  0.69442152     1.09900
C262        C  0.98048754  0.40347055  0.68621808     1.09800
C263        C  0.68741906  0.40398752  0.87492244     1.09800
C264        C  0.67926396  0.30653111  0.72669364     0.19000
C265        C  0.61833333  0.32916491  0.72224554    -0.19100
C266        C  0.59200972  0.34423620  0.78115153    -0.11300
C267        C  0.62456700  0.33650794  0.84584742     0.21300
C268        C  0.68377824  0.31337796  0.85165347    -0.20700
C269        C  0.71123119  0.29849270  0.79202992    -0.11500
C270        C  0.59909891  0.35564197  0.90482986    -0.15700
C271        C  0.62041439  0.38855657  0.90975058    -0.29500
C272        C  0.70057909  0.28689166  0.66598236    -0.03800
C273        C  0.67654285  0.29749080  0.60249301    -0.40300
H274        H  0.58923289  0.33478257  0.67371085     0.12400
H275        H  0.54613264  0.36208620  0.77632986     0.12100
H276        H  0.70880018  0.30683605  0.90160838     0.11500
H277        H  0.75640960  0.28030407  0.79696920     0.11700
H278        H  0.55048442  0.34596413  0.93401184     0.14500
H279        H  0.58800197  0.40474435  0.94278819     0.13300
H280        H  0.70957344  0.25947463  0.67697063     0.10900
H281        H  0.67360647  0.32497957  0.58943145     0.13000
C282        C  0.02724858  0.32046841  0.71139798     0.19000
C283        C  0.98967919  0.29957090  0.76247524    -0.19100
C284        C  0.02734591  0.28685954  0.82147492    -0.11300
C285        C  0.10332038  0.29495578  0.82965413     0.21300
C286        C  0.14253724  0.31194835  0.77436267    -0.20700
C287        C  0.10504390  0.32454803  0.71552964    -0.11500
C288        C  0.14315495  0.28912770  0.89608995    -0.15700
C289        C  0.11206836  0.27668049  0.95638024    -0.29500
C290        C  0.98215147  0.34396737  0.66676787    -0.03800
C291        C  0.00924381  0.37536357  0.64806367    -0.40300
H292        H  0.92980572  0.29578322  0.76016565     0.12400
H293        H  0.99540448  0.27272916  0.86171110     0.12100
H294        H  0.20156490  0.31767056  0.77869439     0.11500
H295        H  0.13662969  0.33990106  0.67682915     0.11700
H296        H  0.20187287  0.29652183  0.89627349     0.14500
H297        H  0.05406963  0.26872889  0.95992420     0.13300
H298        H  0.92238419  0.34211676  0.67670159     0.10900
H299        H  0.06614463  0.37926675  0.62993056     0.13000
C300        C  0.64580492  0.02664189  0.90834956     0.19000
C301        C  0.68679910  0.05358782  0.87495848    -0.19100
C302        C  0.68592139  0.05783536  0.80223584    -0.11300
C303        C  0.64441511  0.03519851  0.76187796     0.21300
C304        C  0.59922854  0.00966606  0.79609729    -0.20700
C305        C  0.59962700  0.00561699  0.86902947    -0.11500
C306        C  0.64373264  0.04222981  0.68525121    -0.15700
C307        C  0.60382153  0.02467817  0.63851200    -0.29500
C308        C  0.66501826  0.01525388  0.98032080    -0.03800
C309        C  0.72167217  0.49587786  0.00155793    -0.40300
H310        H  0.72299123  0.06986134  0.90471959     0.12400
H311        H  0.71870117  0.07861846  0.77734929     0.12100
H312        H  0.56430265  0.99256471  0.76725252     0.11500
H313        H  0.56779494  0.98460350  0.89464283     0.11700
H314        H  0.66652689  0.06737032  0.66763964     0.14500
H315        H  0.58106815  0.99907287  0.65124079     0.13300
H316        H  0.64359869  0.02930590  0.02356286     0.10900
H317        H  0.73231147  0.48939242  0.05639663     0.13000
C318        C  0.76593195  0.37352446  0.06476454     0.19000
C319        C  0.83218628  0.38539189  0.09433519    -0.19100
C320        C  0.90051930  0.37168145  0.07473136    -0.11300
C321        C  0.90278141  0.34578386  0.02619748     0.21300
C322        C  0.83632400  0.33283860  0.99932481    -0.20700
C323        C  0.76849766  0.34675898  0.01845894    -0.11500
C324        C  0.97495060  0.33454461  0.99888646    -0.15700
C325        C  0.00465373  0.34855391  0.93912149    -0.29500
C326        C  0.69219931  0.38583535  0.08579681    -0.03800
C327        C  0.67026658  0.37946826  0.15201990    -0.40300
H328        H  0.83090253  0.40534202  0.13181828     0.12400
H329        H  0.95168036  0.38190043  0.09579747     0.12100
H330        H  0.83729240  0.31269743  0.96217063     0.11500
H331        H  0.71745249  0.33634089  0.99821558     0.11700
H332        H  0.00852339  0.31752571  0.03222608     0.14500
H333        H  0.06256270  0.34386903  0.92764809     0.13300
H334        H  0.64986670  0.38597128  0.04596110     0.10900
H335        H  0.71286196  0.38119343  0.19199238     0.13000
C336        C  0.88108940  0.06737640  0.66450375     0.19000
C337        C  0.87243221  0.09271519  0.71298793    -0.19100
C338        C  0.93248180  0.10204589  0.75392931    -0.11300
C339        C  0.00228914  0.08757354  0.74321693     0.21300
C340        C  0.01154730  0.06338859  0.69187817    -0.20700
C341        C  0.95073620  0.05275232  0.65366239    -0.11500
C342        C  0.06345885  0.09540391  0.79015465    -0.15700
C343        C  0.13432545  0.09993749  0.76980924    -0.29500
C344        C  0.81840010  0.05795093  0.62143296    -0.03800
C345        C  0.77489804  0.52820114  0.62879237    -0.40300
H346        H  0.81923739  0.10493649  0.71956291     0.12400
H347        H  0.92483278  0.12076353  0.79334349     0.12100
H348        H  0.06482804  0.05149310  0.68379537     0.11500
H349        H  0.93315129  0.54632982  0.60905493     0.11700
H350        H  0.05138578  0.09420900  0.84576276     0.14500
H351        H  0.17508543  0.09910706  0.81174444     0.13300
H352        H  0.79840457  0.07736968  0.58357704     0.10900
H353        H  0.73629668  0.51700318  0.59278064     0.13000
C354        C  0.78003970  0.05060933  0.12857843     0.19000
C355        C  0.81669465  0.05139426  0.06396217    -0.19100
C356        C  0.85711433  0.02290582  0.04532960    -0.11300
C357        C  0.86140842  0.99324888  0.09107017     0.21300
C358        C  0.82777565  0.99335133  0.15704126    -0.20700
C359        C  0.78818694  0.02206623  0.17604107    -0.11500
C360        C  0.88477107  0.96013786  0.06421348    -0.15700
C361        C  0.96571843  0.48334698  0.01100642    -0.29500
C362        C  0.73054020  0.07820554  0.14836747    -0.03800
C363        C  0.68954804  0.09835845  0.10383132    -0.40300
H364        H  0.81192839  0.07328986  0.02690526     0.12400
H365        H  0.87902408  0.02306306  0.99257172     0.12100
H366        H  0.82890884  0.97058358  0.19229351     0.11500
H367        H  0.76035060  0.02119788  0.22650013     0.11700
H368        H  0.84734649  0.93824903  0.07516812     0.14500
H369        H  0.99124131  0.50799564  0.99741004     0.13300
H370        H  0.72065037  0.07951029  0.20434373     0.10900
H371        H  0.69477721  0.09752212  0.04742748     0.13000
C372        C  0.92793367  0.36348841  0.46968650     0.19000
C373        C  0.89822759  0.39468939  0.44320671    -0.19100
C374        C  0.83403845  0.40783890  0.47366642    -0.11300
C375        C  0.79846675  0.38986405  0.53065478     0.21300
C376        C  0.82518135  0.35704468  0.55229368    -0.20700
C377        C  0.88849606  0.34395074  0.52159200    -0.11500
C378        C  0.74361799  0.40858848  0.57314653    -0.15700
C379        C  0.72360642  0.39719106  0.63823537    -0.29500
C380        C  0.00037429  0.35119511  0.44437007    -0.03800
C381        C  0.05014899  0.33711499  0.48958368    -0.40300
H382        H  0.92681924  0.40971287  0.40171070     0.12400
H383        H  0.81484245  0.43307942  0.45543854     0.12100
H384        H  0.80116453  0.34196099  0.59572547     0.11500
H385        H  0.90862676  0.31901337  0.54071232     0.11700
H386        H  0.74279846  0.43640500  0.56215523     0.14500
H387        H  0.71976152  0.36983378  0.65039968     0.13300
H388        H  0.01127815  0.35194319  0.38842542     0.10900
H389        H  0.03990585  0.33741245  0.54480644     0.13000
C390        C  0.09106931  0.01343176  0.92172237     0.19000
C391        C  0.14018472  0.00882524  0.97793495    -0.19100
C392        C  0.13021894  0.02652705  0.03886547    -0.11300
C393        C  0.07072932  0.04950186  0.04511732     0.21300
C394        C  0.02325397  0.05529836  0.98805606    -0.20700
C395        C  0.03190872  0.03678351  0.92765502    -0.11500
C396        C  0.06386374  0.07037738  0.10766019    -0.15700
C397        C  0.08835589  0.05827838  0.17049727    -0.29500
C398        C  0.09590127  0.98926124  0.86396630    -0.03800
C399        C  0.07299541  0.51550322  0.78992343    -0.40300
H400        H  0.18559541  0.99080808  0.97534318     0.12400
H401        H  0.17013584  0.02260789  0.08065040     0.12100
H402        H  0.97810641  0.07342731  0.99103222     0.11500
H403        H  0.99028076  0.03995360  0.88730167     0.11700
H404        H  0.05482119  0.09789154  0.09854140     0.14500
H405        H  0.09342170  0.03047922  0.17917631     0.13300
H406        H  0.14924388  0.49175844  0.85847119     0.10900
H407        H  0.04303857  0.53867617  0.77676441     0.13000
C408        C  0.12095823  0.58549849  0.21420464     0.86800
C409        C  0.18079470  0.60793091  0.17527768    -0.53400
C410        C  0.22508736  0.62647957  0.21620194     0.09800
C411        C  0.20792916  0.61917837  0.29525213     0.20700
C412        C  0.16516670  0.56156008  0.26549586    -0.54100
C413        C  0.21289420  0.57832425  0.30756875     0.09900
C414        C  0.07825503  0.61085323  0.25927343    -0.53700
C415        C  0.12321827  0.62957494  0.30146720     0.10400
H416        H  0.18639957  0.61020673  0.11868582     0.14900
H417        H  0.24573583  0.63382471  0.32903736     0.00700
H418        H  0.16265577  0.53363663  0.26473777     0.15200
H419        H  0.01978515  0.61642366  0.25144787     0.15000
C420        C  0.10183271  0.66505612  0.33064163     0.30300
C421        C  0.10637819  0.72970003  0.38189231     0.30300
C422        C  0.13977728  0.69352995  0.28463279    -0.05900
C423        C  0.02332302  0.68143026  0.34007765    -0.06600
C424        C  0.13215613  0.66777618  0.40453132    -0.06500
C425        C  0.14234571  0.72636691  0.31131611    -0.05900
C426        C  0.02486809  0.71493114  0.36778763    -0.06600
C427        C  0.13610487  0.70098410  0.42965183    -0.06500
C428        C  0.13065679  0.74930892  0.25545803    -0.31900
N429        N  0.12548279  0.73295603  0.19561415     0.14600
C430        C  0.12735549  0.69896853  0.21359010    -0.31900
H431        H  0.10938309  0.67923284  0.17930434     0.16500
C432        C  0.95036844  0.72335209  0.37851003    -0.30900
N433        N  0.90538616  0.69717659  0.35729938     0.13300
C434        C  0.94917087  0.67168792  0.33379532    -0.30900
C435        C  0.11749132  0.69779349  0.49953168    -0.31200
N436        N  0.10356479  0.66474028  0.51974739     0.13800
H437        H  0.09888721  0.71898859  0.52933147     0.16500
C438        C  0.10838929  0.64688150  0.46132761    -0.31200
H439        H  0.07934252  0.62276564  0.45701561     0.16500
H440        H  0.92846979  0.64732405  0.31617453     0.16500
H441        H  0.10939223  0.77479657  0.26023239     0.16500
H442        H  0.92975230  0.74641482  0.40075721     0.16500
C443        C  0.10939204  0.81749516  0.47092515     0.86800
C444        C  0.15384386  0.80080306  0.53317583    -0.53400
C445        C  0.20972525  0.77956026  0.51393798     0.09800
C446        C  0.21238810  0.77626715  0.43281844     0.20700
C447        C  0.16876676  0.83574715  0.42360940    -0.54100
C448        C  0.22549598  0.81500489  0.40435617     0.09900
C449        C  0.07891557  0.78751985  0.43103778    -0.53700
C450        C  0.12990067  0.76486165  0.41188265     0.10400
H451        H  0.14223334  0.80546020  0.58745843     0.14900
H452        H  0.25458738  0.75795297  0.41551732     0.00700
H453        H  0.16612850  0.86284768  0.40795662     0.15200
H454        H  0.02001795  0.78386282  0.42189870     0.15000
C455        C  0.39460616  0.54531658  0.43866942     0.30300
C456        C  0.27434914  0.55996880  0.35340076     0.30300
C457        C  0.40976806  0.56769338  0.37173674    -0.05900
C458        C  0.35719895  0.51300373  0.40804661    -0.06600
C459        C  0.32840761  0.56209490  0.47265881    -0.06500
C460        C  0.35046109  0.57482742  0.32874778    -0.05900
C461        C  0.29487710  0.51989109  0.36354337    -0.06600
C462        C  0.26843747  0.56995308  0.43064930    -0.06500
C463        C  0.38162853  0.58633069  0.26504648    -0.31900
N464        N  0.45601143  0.59274943  0.27263862     0.14600
C465        C  0.47380472  0.57707238  0.33490986    -0.31900
H466        H  0.52875125  0.56947491  0.35015795     0.18400
C467        C  0.29195983  0.98784111  0.34263824    -0.30900
N468        N  0.33871396  0.96310870  0.37057771     0.13300
C469        C  0.39156790  0.97899979  0.40886175    -0.30900
C470        C  0.21243473  0.57951221  0.47587659    -0.31200
N471        N  0.23784735  0.57908728  0.54334565     0.13800
H472        H  0.15680193  0.58349438  0.46100903     0.16500
C473        C  0.30759824  0.56634181  0.54131429    -0.31200
H474        H  0.34120765  0.55989694  0.58667763     0.16500
H475        H  0.43828061  0.96611725  0.43376243     0.16500
H476        H  0.35221067  0.58875632  0.21601455     0.16500
H477        H  0.24765700  0.98257576  0.30652594     0.16500
C478        C  0.61635976  0.61753994  0.14707337     0.86800
C479        C  0.65291204  0.64024012  0.20116322    -0.53400
C480        C  0.60466295  0.65729592  0.24002161     0.09800
C481        C  0.52176062  0.65158930  0.21704058     0.20700
C482        C  0.55856484  0.59423149  0.18729211    -0.54100
C483        C  0.50822546  0.61133238  0.22445984     0.09900
C484        C  0.56977562  0.64236752  0.09947998    -0.53700
C485        C  0.51859685  0.66087463  0.13512635     0.10400
H486        H  0.71212057  0.64015687  0.21152731     0.14900
H487        H  0.48423282  0.66680046  0.24908943     0.00700
H488        H  0.55924306  0.56619814  0.18830524     0.15200
H489        H  0.57554616  0.64416393  0.04306524     0.15000
C490        C  0.13871905  0.61989085  0.69806080     0.86800
C491        C  0.09230423  0.64078099  0.64198710    -0.53400
C492        C  0.13296767  0.65047656  0.58390508     0.09800
C493        C  0.21389792  0.64046830  0.58745935     0.20700
C494        C  0.17363825  0.58984664  0.65775308    -0.54100
C495        C  0.21054133  0.60102019  0.59746713     0.09900
C496        C  0.20365409  0.64402832  0.71364359    -0.53700
C497        C  0.24302501  0.65499022  0.65696749     0.10400
H498        H  0.03388417  0.64696397  0.64599380     0.14900
H499        H  0.24552297  0.64948732  0.53971054     0.00700
H500        H  0.16629066  0.56270724  0.67326810     0.15200
H501        H  0.21553517  0.65265347  0.76528857     0.15000
C502        C  0.62867050  0.70538383  0.43278852     0.30300
C503        C  0.62663786  0.67466732  0.30785552     0.30300
C504        C  0.59117946  0.72509576  0.37245977    -0.05900
C505        C  0.70818533  0.70067465  0.39929574    -0.06600
C506        C  0.59941735  0.66815111  0.43479094    -0.06500
C507        C  0.58843462  0.70913931  0.30922152    -0.05900
C508        C  0.70694544  0.68427637  0.33432089    -0.06600
C509        C  0.59712546  0.65281239  0.37053658    -0.06500
C510        C  0.59607250  0.73512671  0.25802767    -0.31900
N511        N  0.60180457  0.76593607  0.28654201     0.14600
C512        C  0.60271753  0.75993539  0.35589039    -0.31900
H513        H  0.62233699  0.77870980  0.39139733     0.16500
C514        C  0.78061211  0.68170396  0.31278966    -0.30900
N515        N  0.82603989  0.69598481  0.36074627     0.13300
C516        C  0.78284508  0.70778803  0.41322051    -0.30900
C517        C  0.61246666  0.61829946  0.38418338    -0.31200
N518        N  0.61958780  0.61076510  0.45336195     0.13800
H519        H  0.62778369  0.60065646  0.34477832     0.16500
C520        C  0.61894567  0.64169701  0.48275180    -0.31200
H521        H  0.63954454  0.64506766  0.53495300     0.16500
H522        H  0.80459389  0.71992802  0.45854438     0.16500
H523        H  0.61471211  0.73084021  0.20612869     0.16500
H524        H  0.80027859  0.67071640  0.26549964     0.16500
C525        C  0.60956657  0.85143596  0.18057457     0.86800
C526        C  0.57531138  0.83098143  0.11975400    -0.53400
C527        C  0.52403105  0.80666437  0.14188135     0.09800
C528        C  0.51025512  0.80547543  0.22036784     0.20700
C529        C  0.54265465  0.86701036  0.21869049    -0.54100
C530        C  0.49055956  0.84276290  0.24008610     0.09900
C531        C  0.63915718  0.82251584  0.23169173    -0.53700
C532        C  0.58657696  0.79838632  0.25095827     0.10400
H533        H  0.59301008  0.83326156  0.06568524     0.14900
H534        H  0.46881440  0.78518385  0.23765400     0.00700
H535        H  0.53865900  0.89406287  0.22982452     0.15200
H536        H  0.69705544  0.82000394  0.24713209     0.15000
C537        C  0.54872035  0.54036052  0.58359182     0.86800
C538        C  0.50839385  0.57038659  0.61643191    -0.53400
C539        C  0.48444689  0.59429006  0.56961699     0.09800
C540        C  0.49474364  0.58557162  0.49437503     0.20700
C541        C  0.48948938  0.52455024  0.53515454    -0.54100
C542        C  0.46153257  0.54857558  0.48711497     0.09900
C543        C  0.60757489  0.55806888  0.53257797    -0.53700
C544        C  0.57823716  0.58237869  0.48685981     0.10400
H545        H  0.50268201  0.57360396  0.67231814     0.14900
H546        H  0.47134255  0.60629652  0.45918736     0.00700
H547        H  0.46928674  0.49805522  0.54074011     0.15200
H548        H  0.66636051  0.55384838  0.53493699     0.15000
C549        C  0.29582510  0.82936937  0.36330357     0.30300
C550        C  0.42124406  0.84688947  0.28505075     0.30300
C551        C  0.29326601  0.82111854  0.28669888    -0.05900
C552        C  0.31769028  0.86980157  0.35642132    -0.06600
C553        C  0.37052641  0.81270772  0.38738248    -0.06500
C554        C  0.35622149  0.82979221  0.24753896    -0.05900
C555        C  0.38236530  0.87817169  0.31512988    -0.06600
C556        C  0.43284508  0.82504911  0.35216778    -0.06500
C557        C  0.33592698  0.83021435  0.17815581    -0.31900
N558        N  0.26344296  0.82072860  0.17335640     0.14600
C559        C  0.23637554  0.81792665  0.23968392    -0.31900
H560        H  0.17830422  0.81748724  0.25266545     0.16500
C561        C  0.39478747  0.91348274  0.31522780    -0.30900
N562        N  0.34039979  0.92771937  0.35373662     0.13300
C563        C  0.29397430  0.90170893  0.37979946    -0.30900
C564        C  0.49444682  0.81578030  0.39101661    -0.31200
N565        N  0.47333635  0.79191445  0.44146434     0.13800
H566        H  0.55062765  0.82539039  0.38181523     0.16500
C567        C  0.39813435  0.78804599  0.43520984    -0.31200
H568        H  0.36713406  0.76652321  0.45729775     0.16500
H569        H  0.24825417  0.90581181  0.41516554     0.16500
H570        H  0.37115483  0.83832002  0.13435206     0.16500
H571        H  0.44068941  0.92775889  0.29024059     0.16500
C572        C  0.16536555  0.78047936  0.02092762     0.86800
C573        C  0.11714150  0.75903172  0.07490402    -0.53400
C574        C  0.15698444  0.74826853  0.13234284     0.09800
C575        C  0.23885055  0.75970302  0.13007923     0.20700
C576        C  0.19821040  0.81043969  0.06207090    -0.54100
C577        C  0.23617470  0.79905116  0.12006618     0.09900
C578        C  0.23072364  0.75718286  0.00443595    -0.53700
C579        C  0.27006588  0.74663108  0.06101920     0.10400
H580        H  0.05773392  0.75425351  0.06977067     0.14900
H581        H  0.27009908  0.75087252  0.17756824     0.00700
H582        H  0.18945894  0.83759373  0.04843955     0.15200
H583        H  0.24242858  0.74958675  0.95231717     0.15000
C584        C  0.62040937  0.76868430  0.58116955     0.86800
C585        C  0.65461015  0.74097776  0.53784289    -0.53400
C586        C  0.60482557  0.72406181  0.49890071     0.09800
C587        C  0.52116435  0.73587560  0.51194042     0.20700
C588        C  0.57580927  0.79207170  0.52841192    -0.54100
C589        C  0.52217375  0.77487096  0.49278780     0.09900
C590        C  0.55948888  0.75064613  0.62831304    -0.53700
C591        C  0.50578988  0.73428534  0.59291898     0.10400
H592        H  0.71423327  0.73789875  0.53288111     0.14900
H593        H  0.47916181  0.72180118  0.48145201     0.00700
H594        H  0.58485218  0.81976364  0.52094041     0.15200
H595        H  0.55652580  0.75246237  0.68440730     0.15000
C596        C  0.45732324  0.68427536  0.09943801     0.30300
C597        C  0.33748663  0.72385847  0.06179062     0.30300
C598        C  0.46330150  0.72267206  0.11595779    -0.05900
C599        C  0.44007953  0.68811585  0.01638393    -0.06600
C600        C  0.38015454  0.67369076  0.13164123    -0.06500
C601        C  0.40077830  0.74219556  0.09844752    -0.05900
C602        C  0.37836565  0.70946170  0.99952971    -0.06600
C603        C  0.32071470  0.69143153  0.10580700    -0.06500
C604        C  0.42362447  0.77601666  0.08793440    -0.31900
N605        N  0.49691004  0.77916376  0.10054464     0.14600
C606        C  0.52203360  0.74635663  0.11018248    -0.31900
H607        H  0.57987842  0.73989646  0.10384490     0.16500
C608        C  0.37140167  0.71325777  0.92812474    -0.30900
N609        N  0.42464686  0.69504933  0.89745785     0.13300
C610        C  0.46669886  0.67908345  0.94971206    -0.30900
C611        C  0.25698326  0.67553914  0.13120773    -0.31200
N612        N  0.27470107  0.65291274  0.18447985     0.13800
H613        H  0.20262693  0.67926641  0.10876130     0.16500
C614        C  0.35001509  0.65382338  0.18756525    -0.31200
H615        H  0.37894441  0.64509059  0.23221372     0.16500
H616        H  0.51245894  0.66210616  0.94010316     0.16500
H617        H  0.38995050  0.79660380  0.06587935     0.16500
H618        H  0.33039265  0.72773094  0.89868642     0.16500
C619        C  0.43624489  0.71656444  0.62720942     0.30300
C620        C  0.31120410  0.67811291  0.65850644     0.30300
C621        C  0.42981928  0.68156249  0.59461620    -0.05900
C622        C  0.42578450  0.70549344  0.70793647    -0.06600
C623        C  0.36003458  0.73394557  0.60876912    -0.06500
C624        C  0.36652696  0.66241940  0.61179450    -0.05900
C625        C  0.36074984  0.68540995  0.72292576    -0.06600
C626        C  0.29788701  0.71369460  0.62454376    -0.06500
C627        C  0.38414539  0.62841590  0.61212606    -0.31900
N628        N  0.45336453  0.62577637  0.58882027     0.14600
C629        C  0.48380101  0.65776600  0.58258829    -0.31900
H630        H  0.54214522  0.66351056  0.58176248     0.16500
C631        C  0.36142518  0.67581401  0.79369433    -0.30900
N632        N  0.42274571  0.68938274  0.82435198     0.13300
C633        C  0.46174540  0.70803994  0.77284917    -0.30900
C634        C  0.23586498  0.73058459  0.59972869    -0.31200
N635        N  0.25674236  0.76043038  0.56488372     0.13800
H636        H  0.17969075  0.72154448  0.60808799     0.16500
C637        C  0.33178284  0.76417271  0.57661487    -0.31200
H638        H  0.36416135  0.78712415  0.56238544     0.16500
H639        H  0.51073707  0.72351693  0.78264666     0.16500
H640        H  0.35273452  0.60759902  0.63793189     0.16500
H641        H  0.31859146  0.66133133  0.82260531     0.16500
O642        O  0.03369298  0.93311370  0.79923631    -0.79800
O643        O  0.76261537  0.98209334  0.88001498    -0.79800
O644        O  0.82615640  0.97014113  0.64600348    -0.79800
O645        O  0.87719318  0.91178678  0.95663736    -0.79800
O646        O  0.80451608  0.99812745  0.73803917    -0.79900
O647        O  0.92751165  0.95356797  0.88954562    -0.79800
O648        O  0.73774866  0.93425521  0.94513080    -0.79800
O649        O  0.95381130  0.96928489  0.74610486    -0.79800
C650        C  0.01707396  0.96352396  0.77687546     1.09900
C651        C  0.73936538  0.96700524  0.93689235     1.09800
C652        C  0.80990544  0.99760724  0.67168701     1.09900
C653        C  0.91253137  0.94038396  0.94958099     1.09800
O654        O  0.95470714  0.88159591  0.87340131    -0.79800
O655        O  0.70669772  0.94026428  0.69961673    -0.79900
O656        O  0.93848378  0.91906434  0.64781281    -0.79800
O657        O  0.70009724  0.88217536  0.84938505    -0.79800
O658        O  0.65546843  0.93438533  0.83653118    -0.79800
O659        O  0.94041132  0.88596303  0.74008755    -0.79800
O660        O  0.84539611  0.85779459  0.85873500    -0.79800
O661        O  0.79564693  0.90177388  0.69022827    -0.79800
Co662      Co  0.93059010  0.92276576  0.81118806     1.51500
Co663      Co  0.73912170  0.96168937  0.78974376     1.51700
Co664      Co  0.86859321  0.93747127  0.71197043     1.51600
Co665      Co  0.79192286  0.89713368  0.89606142     1.51500
O666        O  0.82134339  0.92553935  0.80739613    -1.41700
C667        C  0.91313172  0.85497718  0.87517586     1.09800
C668        C  0.73258822  0.91337709  0.67248984     1.09900
C669        C  0.95740311  0.89151422  0.67622387     1.09800
C670        C  0.64600930  0.90265249  0.85278405     1.09800
C671        C  0.65445414  0.80082002  0.74034991     0.19000
C672        C  0.60222819  0.82630449  0.72017092    -0.19100
C673        C  0.56312345  0.84327489  0.76997330    -0.11300
C674        C  0.57497056  0.83525936  0.84084864     0.21300
C675        C  0.62320137  0.80870598  0.86193469    -0.20700
C676        C  0.66331093  0.79166335  0.81169320    -0.11500
C677        C  0.54772122  0.85944845  0.89060712    -0.15700
C678        C  0.57541121  0.89175218  0.88890790    -0.29500
C679        C  0.69027534  0.77986154  0.68761052    -0.03800
C680        C  0.67905929  0.78805302  0.61974923    -0.40300
H681        H  0.58976357  0.83302372  0.66603345     0.12400
H682        H  0.52560739  0.86374085  0.75333245     0.12100
H683        H  0.63166707  0.80205251  0.91687784     0.11500
H684        H  0.70103645  0.77132581  0.82837924     0.11700
H685        H  0.49911301  0.85250925  0.92255524     0.14500
H686        H  0.54687259  0.91071402  0.91872833     0.13300
H687        H  0.69591350  0.75268040  0.70336542     0.10900
H688        H  0.68400645  0.81496014  0.60312600     0.13000
C689        C  0.06466304  0.82301060  0.70631875     0.19000
C690        C  0.05665787  0.79082213  0.74197685    -0.19100
C691        C  0.09493313  0.78416610  0.80392327    -0.11300
C692        C  0.14050764  0.81001518  0.83071469     0.21300
C693        C  0.15807855  0.83974324  0.78946768    -0.20700
C694        C  0.12069206  0.84625000  0.72697570    -0.11500
C695        C  0.16769120  0.80707820  0.90252070    -0.15700
C696        C  0.12754752  0.79127743  0.95459436    -0.29500
C697        C  0.00158898  0.83493334  0.66342652    -0.03800
C698        C  0.00043960  0.86741724  0.63801403    -0.40300
H699        H  0.01506899  0.77232923  0.72606616     0.12400
H700        H  0.08421885  0.76004351  0.83353889     0.12100
H701        H  0.19571981  0.85921601  0.80838963     0.11500
H702        H  0.13001572  0.87112130  0.69991992     0.11700
H703        H  0.22331327  0.81703141  0.91274857     0.14500
H704        H  0.07138032  0.78195108  0.94617734     0.13300
H705        H  0.94813766  0.82312328  0.67855757     0.10900
H706        H  0.04926279  0.87868831  0.61137260     0.13000
C707        C  0.64268442  0.52457838  0.91220989     0.19000
C708        C  0.67282984  0.55318997  0.87447576    -0.19100
C709        C  0.66680183  0.55565100  0.80197510    -0.11300
C710        C  0.62999155  0.52977298  0.76572624     0.21300
C711        C  0.59610749  0.50191706  0.80411036    -0.20700
C712        C  0.60227602  0.49947008  0.87722070    -0.11500
C713        C  0.62383852  0.53564379  0.68895877    -0.15700
C714        C  0.57991406  0.51856967  0.64453074    -0.29500
C715        C  0.66613484  0.51778782  0.98517014    -0.03800
C716        C  0.70703140  0.98717299  0.99315825    -0.40300
H717        H  0.70451720  0.57262315  0.90074903     0.12400
H718        H  0.69170710  0.57789973  0.77399097     0.12100
H719        H  0.56616229  0.48188952  0.77819771     0.11500
H720        H  0.57884240  0.47714395  0.90626748     0.11700
H721        H  0.64610065  0.56053983  0.66940396     0.14500
H722        H  0.55445156  0.49372366  0.65933216     0.13300
H723        H  0.63754424  0.53061505  0.02646030     0.10900
H724        H  0.71341198  0.97754414  0.04702197     0.13000
C725        C  0.74895849  0.86634002  0.06125275     0.19000
C726        C  0.82026202  0.86425925  0.09138654    -0.19100
C727        C  0.87468203  0.84360717  0.06250722    -0.11300
C728        C  0.85736825  0.82409537  0.00496739     0.21300
C729        C  0.78515751  0.82458519  0.97797220    -0.20700
C730        C  0.73255607  0.84658767  0.00398743    -0.11500
C731        C  0.91683619  0.80776485  0.96546942    -0.15700
C732        C  0.94119098  0.82185338  0.90367611    -0.29500
C733        C  0.68701043  0.88490032  0.09315535    -0.03800
C734        C  0.67148511  0.87719770  0.16062452    -0.40300
H735        H  0.83421423  0.87898603  0.13613940     0.12400
H736        H  0.93061256  0.84365813  0.08349394     0.12100
H737        H  0.77124796  0.80960435  0.93352500     0.11500
H738        H  0.67830435  0.84778880  0.98002518     0.11700
H739        H  0.94337614  0.78491109  0.98830872     0.14500
H740        H  0.98705649  0.81046144  0.87723735     0.13300
H741        H  0.63971489  0.88990747  0.05899265     0.10900
H742        H  0.71891658  0.87594911  0.19568726     0.13000
C743        C  0.85120631  0.57764482  0.65817482     0.19000
C744        C  0.83867115  0.60381640  0.70406177    -0.19100
C745        C  0.89777606  0.61644958  0.74247925    -0.11300
C746        C  0.96958007  0.60379438  0.73274430     0.21300
C747        C  0.98189969  0.57931495  0.68243440    -0.20700
C748        C  0.92304371  0.56611920  0.64581853    -0.11500
C749        C  0.02872786  0.61295896  0.78130966    -0.15700
C750        C  0.10149267  0.61000874  0.76777424    -0.29500
C751        C  0.78940896  0.56209976  0.62251674    -0.03800
C752        C  0.79004819  0.02600321  0.62243975    -0.40300
H753        H  0.78308196  0.61340251  0.71203282     0.12400
H754        H  0.88732507  0.63541189  0.78083467     0.12100
H755        H  0.03599699  0.56877966  0.67356372     0.11500
H756        H  0.95795758  0.03345736  0.61529226     0.11700
H757        H  0.01187282  0.61704977  0.83476759     0.14500
H758        H  0.13750831  0.60904315  0.81338940     0.13300
H759        H  0.75862650  0.57866719  0.58611973     0.10900
H760        H  0.75224803  0.01935716  0.58118097     0.13000
C761        C  0.77644979  0.55376789  0.13817446     0.19000
C762        C  0.81610105  0.56044553  0.07585574    -0.19100
C763        C  0.87005795  0.53757341  0.05609331    -0.11300
C764        C  0.88666098  0.50806524  0.09914450     0.21300
C765        C  0.85015647  0.50279168  0.16365956    -0.20700
C766        C  0.79562942  0.52563356  0.18323735    -0.11500
C767        C  0.92716353  0.47903293  0.07081257    -0.15700
C768        C  0.93220008  0.95983604  0.01031096    -0.29500
C769        C  0.71489571  0.57544213  0.15850211    -0.03800
C770        C  0.67468756  0.59614988  0.11454509    -0.40300
H771        H  0.80372274  0.58241774  0.04091526     0.12400
H772        H  0.89315123  0.54161343  0.00413953     0.12100
H773        H  0.86069500  0.47993248  0.19692373     0.11500
H774        H  0.76596628  0.52042315  0.23219264     0.11700
H775        H  0.90616554  0.45345433  0.08694607     0.14500
H776        H  0.97020191  0.98152520  0.00103286     0.13300
H777        H  0.70070690  0.57398952  0.21398108     0.10900
H778        H  0.68407925  0.59790531  0.05843351     0.13000
C779        C  0.93149075  0.87276294  0.46800748     0.19000
C780        C  0.90863926  0.90615967  0.44713933    -0.19100
C781        C  0.83976722  0.91842035  0.46953578    -0.11300
C782        C  0.79233833  0.89750590  0.51314684     0.21300
C783        C  0.81308619  0.86314262  0.52887338    -0.20700
C784        C  0.88109201  0.85085052  0.50603594    -0.11500
C785        C  0.72840328  0.91375607  0.54899499    -0.15700
C786        C  0.69972385  0.89992188  0.60947117    -0.29500
C787        C  0.00789215  0.86119243  0.45050716    -0.03800
C788        C  0.04434323  0.83824605  0.49272617    -0.40300
H789        H  0.94548759  0.92329921  0.41619199     0.12400
H790        H  0.82540258  0.94494436  0.45582990     0.12100
H791        H  0.77901412  0.84580132  0.56120499     0.11500
H792        H  0.89436085  0.82423086  0.51969285     0.11700
H793        H  0.72829611  0.94181521  0.54308237     0.14500
H794        H  0.69069542  0.87235914  0.61413610     0.13300
H795        H  0.03419307  0.87161380  0.40261974     0.10900
H796        H  0.01491836  0.82636447  0.53672842     0.13000
C797        C  0.10635891  0.53803626  0.90524217     0.19000
C798        C  0.15566907  0.53490753  0.96159654    -0.19100
C799        C  0.13883079  0.54927287  0.02501322    -0.11300
C800        C  0.07284286  0.56790301  0.03315447     0.21300
C801        C  0.02729894  0.57421283  0.97494440    -0.20700
C802        C  0.04174109  0.55797894  0.91266485    -0.11500
C803        C  0.05473558  0.58260817  0.10109886    -0.15700
C804        C  0.07614883  0.56627188  0.16151837    -0.29500
C805        C  0.11702643  0.51483320  0.84646542    -0.03800
C806        C  0.05685139  0.99329254  0.80447406    -0.40300
H807        H  0.20553677  0.51967184  0.95784986     0.12400
H808        H  0.17740959  0.54555056  0.06797845     0.12100
H809        H  0.97755486  0.58946784  0.97934367     0.11500
H810        H  0.99915260  0.55907303  0.87306529     0.11700
H811        H  0.04461870  0.61020544  0.09984418     0.14500
H812        H  0.08246009  0.53840349  0.16255685     0.13300
H813        H  0.12051415  0.96431397  0.87710832     0.10900
H814        H  0.03372004  0.01817035  0.79099003     0.13000
loop_ 
_geom_bond_atom_site_label_1 
_geom_bond_atom_site_label_2 
_geom_bond_distance 
_geom_bond_site_symmetry_2 
_ccdc_geom_bond_type 
C1            C2   1.545       .  S
C1            C7   1.549       .  S
C1            C5   1.540       .  S
C1          C397   1.515       .  S
C2            H9   1.086       .  S
C2            C3   1.355       .  D
C3            C4   1.560       .  S
C3          N205   1.467       .  S
C4            C8   1.593       .  S
C4            C6   1.587       .  S
C4           H10   1.110       .  S
C5           H11   1.082       .  S
C5            C6   1.354       .  D
C6           C49   1.559       .  S
C7           H12   1.084       .  S
C7            C8   1.371       .  D
C8           C13   1.569       .  S
C13          C15   1.518       .  S
C13          C17   1.534       .  S
C13          C16   1.575       .  S
C14          C43   1.557       .  S
C14          C18   1.506       .  S
C14          C20   1.517       .  S
C14          C19   1.581       .  S
C15          C23   1.383       .  A
C15          C18   1.391       .  A
C16          C27   1.392   1_455  A
C16          C19   1.428       .  A
C17          C31   1.386       .  A
C17          C20   1.404       .  A
C18          C21   1.368       .  A
C19          C25   1.391   1_455  A
C20          C28   1.379       .  A
C21          N22   1.340       .  A
C21          H34   1.058       .  S
N22         C167   1.427       .  S
N22          C23   1.341       .  A
C23          H24   1.080       .  S
C25          N26   1.360       .  A
C25          H35   1.077       .  S
N26          C27   1.368       .  A
N26         N108   1.424       .  S
C27          H33   1.081       .  S
C28          N29   1.345       .  A
C28          H30   1.080       .  S
N29          C85   1.434       .  S
N29          C31   1.351       .  A
C31          H32   1.083       .  S
C36          C37   1.551       .  S
C36          C42   1.523       .  S
C36          C40   1.532       .  S
C36         C381   1.498       .  S
C37          H44   1.081       .  S
C37          C38   1.365       .  D
C38          C39   1.561       .  S
C38         N228   1.464       .  S
C39          C43   1.586       .  S
C39          C41   1.591       .  S
C39          H45   1.105       .  S
C40          H46   1.080       .  S
C40          C41   1.363       .  D
C41         C142   1.567       .  S
C42          H47   1.075       .  S
C42          C43   1.347       .  D
C48         C135   1.528       .  S
C48          C50   1.532       .  S
C48          C52   1.523       .  S
C48          C51   1.553       .  S
C49          C53   1.534       .  S
C49          C55   1.540       .  S
C49          C54   1.597       .  S
C50          C58   1.378       .  A
C50          C53   1.371       .  A
C51          C54   1.428       .  A
C51         C469   1.385   1_545  A
C52          C66   1.382       .  A
C52          C55   1.378       .  A
C53          C56   1.384       .  A
C54         C467   1.405   1_545  A
C55          C63   1.377       .  A
C56          N57   1.364       .  A
C56          H69   1.079       .  S
N57          C76   1.463       .  S
N57          C58   1.352       .  A
C58          H59   1.070       .  S
C60         C461   1.410       .  A
C60          N61   1.377       .  A
C60          H70   1.081       .  S
N61          C62   1.362       .  A
N61         N155   1.432       .  S
C62         C458   1.387       .  A
C62          H68   1.082       .  S
C63          N64   1.359       .  A
C63          H65   1.086       .  S
N64          C88   1.454       .  S
N64          C66   1.354       .  A
C66          H67   1.078       .  S
C71          C72   1.537       .  S
C71          C77   1.550       .  S
C71          C75   1.542       .  S
C71         C363   1.506       .  S
C72          H79   1.080       .  S
C72          C73   1.346       .  D
C73          C74   1.568       .  S
C73          C96   1.546       .  S
C74          C78   1.589       .  S
C74          C76   1.571       .  S
C74          H80   1.106       .  S
C75          H81   1.087       .  S
C75          C76   1.348       .  D
C77          H82   1.082       .  S
C77          C78   1.377       .  D
C78         C189   1.572       .  S
C83          C84   1.564       .  S
C83          C89   1.531       .  S
C83          C87   1.556       .  S
C83         C343   1.520       .  S
C84          H91   1.082       .  S
C84          C85   1.369       .  D
C85          C86   1.515       .  S
C86          C90   1.556       .  S
C86          C88   1.534       .  S
C86          H92   1.111       .  S
C87          H93   1.086       .  S
C87          C88   1.369       .  D
C89          H94   1.078       .  S
C89          C90   1.345       .  D
C90         C213   1.519       .  S
C95         C179   1.559       .  S
C95          C97   1.511       .  S
C95          C99   1.525       .  S
C95          C98   1.582       .  S
C96         C100   1.513       .  S
C96         C102   1.522       .  S
C96         C101   1.571       .  S
C97         C105   1.380       .  A
C97         C100   1.387       .  A
C98         C109   1.393       .  A
C98         C101   1.428       .  A
C99         C113   1.388       .  A
C99         C102   1.399       .  A
C100        C103   1.373       .  A
C101        C107   1.388       .  A
C102        C110   1.381       .  A
C103        N104   1.343       .  A
C103        H116   1.069       .  S
N104        C125   1.427       .  S
N104        C105   1.332       .  A
C105        H106   1.078       .  S
C107        N108   1.360       .  A
C107        H117   1.079       .  S
N108        C109   1.369       .  A
C109        H115   1.081       .  S
C110        N111   1.348       .  A
C110        H112   1.081       .  S
N111        C137   1.435       .  S
N111        C113   1.349       .  A
C113        H114   1.081       .  S
C118        C119   1.568       .  S
C118        C124   1.545       .  S
C118        C122   1.552       .  S
C118        C327   1.517       .  S
C119        H126   1.081       .  S
C119        C120   1.362       .  D
C120        C121   1.517       .  S
C120        N198   1.442       .  S
C121        C125   1.517       .  S
C121        C123   1.561       .  S
C121        H127   1.112       .  S
C122        H128   1.085       .  S
C122        C123   1.365       .  D
C123        C143   1.534       .  S
C124        H129   1.086       .  S
C124        C125   1.352       .  D
C130        C131   1.538       .  S
C130        C136   1.558       .  S
C130        C134   1.557       .  S
C130        C307   1.510       .  S
C131        H138   1.088       .  S
C131        C132   1.334       .  D
C132        C133   1.509       .  S
C132        N221   1.415       .  S
C133        C137   1.514       .  S
C133        C135   1.553       .  S
C133        H139   1.110       .  S
C134        H140   1.085       .  S
C134        C135   1.375       .  D
C136        H141   1.074       .  S
C136        C137   1.364       .  D
C142        C144   1.531       .  S
C142        C146   1.559       .  S
C142        C145   1.609       .  S
C143        C147   1.539       .  S
C143        C149   1.517       .  S
C143        C148   1.556       .  S
C144        C152   1.385       .  A
C144        C147   1.384       .  A
C145        C156   1.410       .  A
C145        C148   1.425       .  A
C146        C160   1.393       .  A
C146        C149   1.368       .  A
C147        C150   1.381       .  A
C148        C154   1.393       .  A
C149        C157   1.377       .  A
C150        N151   1.354       .  A
C150        H163   1.079       .  S
N151        C170   1.447       .  S
N151        C152   1.360       .  A
C152        H153   1.075       .  S
C154        N155   1.365       .  A
C154        H164   1.082       .  S
N155        C156   1.371       .  A
C156        H162   1.080       .  S
C157        N158   1.351       .  A
C157        H159   1.081       .  S
N158        C182   1.459       .  S
N158        C160   1.361       .  A
C160        H161   1.061       .  S
C165        C166   1.543       .  S
C165        C171   1.536       .  S
C165        C169   1.559       .  S
C165        C289   1.495   1_554  S
C166        H173   1.085       .  S
C166        C167   1.362       .  D
C167        C168   1.522       .  S
C168        C172   1.547       .  S
C168        C170   1.526       .  S
C168        H174   1.112       .  S
C169        H175   1.085       .  S
C169        C170   1.370       .  D
C171        H176   1.081   1_554  S
C171        C172   1.344       .  D
C172        C190   1.503       .  S
C177        C178   1.530       .  S
C177        C183   1.549       .  S
C177        C181   1.546       .  S
C177        C273   1.494       .  S
C178        H185   1.084       .  S
C178        C179   1.354       .  D
C179        C180   1.603       .  S
C180        C184   1.576       .  S
C180        C182   1.544       .  S
C180        H186   1.110       .  S
C181        H187   1.086       .  S
C181        C182   1.363       .  D
C183        H188   1.083       .  S
C183        C184   1.351       .  D
C184        C212   1.547       .  S
C189        C191   1.544       .  S
C189        C193   1.564       .  S
C189        C192   1.618       .  S
C190        C194   1.524       .  S
C190        C196   1.506       .  S
C190        C195   1.529   1_554  S
C191        C199   1.394       .  A
C191        C194   1.394       .  A
C192        C203   1.421   1_554  A
C192        C195   1.419   1_554  A
C193        C207   1.394       .  A
C193        C196   1.359       .  A
C194        C197   1.374       .  A
C195        C201   1.373       .  A
C196        C204   1.375       .  A
C197        N198   1.341       .  A
C197        H210   1.078       .  S
N198        C199   1.361       .  A
C199        H200   1.080       .  S
C201        N202   1.351       .  A
C201        H211   1.079       .  S
N202        C203   1.382       .  A
N202        N225   1.428       .  S
C203        H209   1.081       .  S
C204        N205   1.354       .  A
C204        H206   1.078       .  S
N205        C207   1.358       .  A
C207        H208   1.053       .  S
C212        C214   1.524       .  S
C212        C216   1.556       .  S
C212        C215   1.594       .  S
C213        C217   1.495       .  S
C213        C219   1.524       .  S
C213        C218   1.557       .  S
C214        C222   1.370       .  A
C214        C217   1.379       .  A
C215        C226   1.412       .  A
C215        C218   1.416       .  A
C216        C230   1.391       .  A
C216        C219   1.382       .  A
C217        C220   1.362       .  A
C218        C224   1.383       .  A
C219        C227   1.374       .  A
C220        N221   1.329       .  A
C220        H233   1.076       .  S
N221        C222   1.345       .  A
C222        H223   1.066       .  S
C224        N225   1.358       .  A
C224        H234   1.077       .  S
N225        C226   1.377       .  A
C226        H232   1.081       .  S
C227        N228   1.355       .  A
C227        H229   1.069       .  S
N228        C230   1.369       .  A
C230        H231   1.079       .  S
O235        C243   1.271       .  A
O235       Co255   1.899   1_455  S
O236        C244   1.271       .  A
O236       Co256   1.976       .  S
O237        C245   1.237       .  A
O237       Co257   1.918       .  S
O238        C246   1.269       .  A
O238       Co258   2.006       .  S
O239        C245   1.274       .  A
O239       Co256   2.031       .  S
O240        C246   1.265       .  A
O240       Co255   1.974       .  S
O241        C244   1.272       .  A
O241       Co258   2.018       .  S
O242        C243   1.297   1_655  A
O242       Co257   2.075       .  S
C243        C399   1.470       .  S
C244        C309   1.480   1_556  S
C245        C345   1.465       .  S
C246        C361   1.458   1_556  S
O247        C260   1.261   1_455  A
O247       Co255   1.989   1_455  S
O248        C261   1.276       .  A
O248       Co256   2.027       .  S
O249        C262   1.229       .  A
O249       Co257   1.930       .  S
O250        C263   1.265       .  A
O250       Co258   1.973       .  S
O251        C263   1.263       .  A
O251       Co256   2.004       .  S
O252        C262   1.264       .  A
O252       Co255   2.025       .  S
O253        C260   1.263       .  A
O253       Co258   1.974       .  S
O254        C261   1.263       .  A
O254       Co257   1.957       .  S
Co255       O259   1.968       .  S
Co256       O259   2.073       .  S
Co257       O259   2.046       .  S
Co258       O259   2.041       .  S
C260        C325   1.466   1_655  S
C261        C379   1.457       .  S
C262        C291   1.443   1_655  S
C263        C271   1.476       .  S
C264        C265   1.412       .  A
C264        C269   1.401       .  A
C264        C272   1.474       .  S
C265        C266   1.381       .  A
C265        H274   1.082       .  S
C266        C267   1.392       .  A
C266        H275   1.084       .  S
C267        C268   1.401       .  A
C267        C270   1.458       .  S
C268        C269   1.396       .  A
C268        H276   1.078       .  S
C269        H277   1.083       .  S
C270        H278   1.085       .  S
C270        C271   1.336       .  D
C271        H279   1.086       .  S
C272        H280   1.087       .  S
C272        C273   1.338       .  D
C273        H281   1.084       .  S
C282        C283   1.401   1_455  A
C282        C287   1.406       .  A
C282        C290   1.470   1_455  S
C283        C284   1.391   1_655  A
C283        H292   1.084       .  S
C284        C285   1.406       .  A
C284        H293   1.079   1_455  S
C285        C286   1.399       .  A
C285        C288   1.471       .  S
C286        C287   1.385       .  A
C286        H294   1.084       .  S
C287        H295   1.079       .  S
C288        H296   1.088       .  S
C288        C289   1.343       .  D
C289        H297   1.082       .  S
C290        H298   1.089       .  S
C290        C291   1.336   1_655  D
C291        H299   1.083       .  S
C300        C301   1.395       .  A
C300        C305   1.403       .  A
C300        C308   1.469       .  S
C301        C302   1.393       .  A
C301        H310   1.084       .  S
C302        C303   1.407       .  A
C302        H311   1.080       .  S
C303        C304   1.404       .  A
C303        C306   1.478       .  S
C304        C305   1.397       .  A
C304        H312   1.080   1_545  S
C305        H313   1.083   1_545  S
C306        H314   1.089       .  S
C306        C307   1.354       .  D
C307        H315   1.084   1_545  S
C308        H316   1.086   1_556  S
C308        C716   1.346   1_545  D
C309        H317   1.085       .  S
C309        C715   1.346   1_554  D
C318        C319   1.402       .  A
C318        C323   1.400       .  A
C318        C326   1.474       .  S
C319        C320   1.401       .  A
C319        H328   1.082       .  S
C320        C321   1.404       .  A
C320        H329   1.083       .  S
C321        C322   1.398   1_554  A
C321        C324   1.474   1_554  S
C322        C323   1.393   1_556  A
C322        H330   1.083       .  S
C323        H331   1.078   1_554  S
C324        H332   1.085   1_656  S
C324        C325   1.345   1_655  D
C325        H333   1.081       .  S
C326        H334   1.079       .  S
C326        C327   1.335       .  D
C327        H335   1.088       .  S
C336        C337   1.396       .  A
C336        C341   1.399       .  A
C336        C344   1.452       .  S
C337        C338   1.391       .  A
C337        H346   1.081       .  S
C338        C339   1.398   1_655  A
C338        H347   1.083       .  S
C339        C340   1.404       .  A
C339        C342   1.461       .  S
C340        C341   1.387   1_455  A
C340        H348   1.081       .  S
C341        H756   1.084       .  S
C342        H350   1.083       .  S
C342        C343   1.335       .  D
C343        H351   1.088       .  S
C344        H352   1.084       .  S
C344        C752   1.332       .  D
C345        H353   1.082       .  S
C345        C751   1.336       .  D
H349        C748   1.084       .  S
C354        C355   1.397       .  A
C354        C359   1.405       .  A
C354        C362   1.464       .  S
C355        C356   1.391       .  A
C355        H364   1.082       .  S
C356        C357   1.412   1_545  A
C356        H365   1.081   1_554  S
C357        C358   1.397       .  A
C357        C360   1.473       .  S
C358        C359   1.392   1_565  A
C358        H366   1.084       .  S
C359        H367   1.084       .  S
C360        H368   1.086       .  S
C360        C768   1.335       .  D
C361        H369   1.073   1_554  S
C361        C767   1.336       .  D
C362        H370   1.089       .  S
C362        C363   1.353       .  D
C363        H371   1.085       .  S
C372        C373   1.401       .  A
C372        C377   1.401       .  A
C372        C380   1.479   1_655  S
C373        C374   1.403       .  A
C373        H382   1.083       .  S
C374        C375   1.409       .  A
C374        H383   1.083       .  S
C375        C376   1.409       .  A
C375        C378   1.493       .  S
C376        C377   1.391       .  A
C376        H384   1.076       .  S
C377        H385   1.083       .  S
C378        H386   1.089       .  S
C378        C379   1.345       .  D
C379        H387   1.075       .  S
C380        H388   1.086       .  S
C380        C381   1.348       .  D
C381        H389   1.072       .  S
C390        C391   1.400       .  A
C390        C395   1.413       .  A
C390        C398   1.489   1_545  S
C391        C392   1.395   1_556  A
C391        H400   1.083   1_545  S
C392        C393   1.409       .  A
C392        H401   1.083       .  S
C393        C394   1.399   1_554  A
C393        C396   1.485       .  S
C394        C395   1.401       .  A
C394        H402   1.083   1_455  S
C395        H403   1.081   1_455  S
C396        H404   1.087       .  S
C396        C397   1.346       .  D
C397        H405   1.087       .  S
C398        H813   1.087       .  S
C398        C806   1.343       .  D
C399        H407   1.073       .  S
C399        C805   1.343       .  D
H406        C805   1.087       .  S
C408        C409   1.538       .  S
C408        C414   1.549       .  S
C408        C412   1.546       .  S
C408        C804   1.513       .  S
C409        H416   1.086       .  S
C409        C410   1.346       .  D
C410        C411   1.553       .  S
C410        N612   1.455       .  S
C411        C415   1.584       .  S
C411        C413   1.593       .  S
C411        H417   1.110       .  S
C412        H418   1.084       .  S
C412        C413   1.360       .  D
C413        C456   1.568       .  S
C414        H419   1.084       .  S
C414        C415   1.372       .  D
C415        C420   1.563       .  S
C420        C422   1.527       .  S
C420        C424   1.526       .  S
C420        C423   1.567       .  S
C421        C450   1.560       .  S
C421        C425   1.506       .  S
C421        C427   1.509       .  S
C421        C426   1.593       .  S
C422        C430   1.385       .  A
C422        C425   1.397       .  A
C423        C434   1.386   1_455  A
C423        C426   1.428       .  A
C424        C438   1.384       .  A
C424        C427   1.399       .  A
C425        C428   1.374       .  A
C426        C432   1.397   1_455  A
C427        C435   1.376       .  A
C428        N429   1.341       .  A
C428        H441   1.073       .  S
N429        C574   1.431       .  S
N429        C430   1.346       .  A
C430        H431   1.081       .  S
C432        N433   1.368       .  A
C432        H442   1.079       .  S
N433        C434   1.364       .  A
N433        N515   1.425       .  S
C434        H440   1.081       .  S
C435        N436   1.339       .  A
C435        H437   1.080       .  S
N436        C492   1.427       .  S
N436        C438   1.348       .  A
C438        H439   1.072       .  S
C443        C444   1.555       .  S
C443        C449   1.520       .  S
C443        C447   1.536       .  S
C443        C788   1.497       .  S
C444        H451   1.083       .  S
C444        C445   1.368       .  D
C445        C446   1.565       .  S
C445        N635   1.471       .  S
C446        C450   1.598       .  S
C446        C448   1.585       .  S
C446        H452   1.106       .  S
C447        H453   1.080       .  S
C447        C448   1.367       .  D
C448        C549   1.564       .  S
C449        H454   1.081       .  S
C449        C450   1.340       .  D
C455        C542   1.529       .  S
C455        C457   1.531       .  S
C455        C459   1.522       .  S
C455        C458   1.556       .  S
C456        C460   1.538       .  S
C456        C462   1.551       .  S
C456        C461   1.604       .  S
C457        C465   1.380       .  A
C457        C460   1.371       .  A
C458        C461   1.429       .  A
C459        C473   1.383       .  A
C459        C462   1.375       .  A
C460        C463   1.389       .  A
C462        C470   1.390       .  A
C463        N464   1.364       .  A
C463        H476   1.080       .  S
N464        C483   1.467       .  S
N464        C465   1.351       .  A
C465        H466   1.071       .  S
C467        N468   1.372       .  A
C467        H477   1.080       .  S
N468        C469   1.362       .  A
N468        N562   1.427       .  S
C469        H475   1.082       .  S
C470        N471   1.371       .  A
C470        H472   1.051       .  S
N471        C495   1.461       .  S
N471        C473   1.353       .  A
C473        H474   1.080       .  S
C478        C479   1.537       .  S
C478        C484   1.547       .  S
C478        C482   1.543       .  S
C478        C770   1.497       .  S
C479        H486   1.082       .  S
C479        C480   1.342       .  D
C480        C481   1.570       .  S
C480        C503   1.544       .  S
C481        C485   1.592       .  S
C481        C483   1.576       .  S
C481        H487   1.105       .  S
C482        H488   1.087       .  S
C482        C483   1.349       .  D
C484        H489   1.083       .  S
C484        C485   1.374       .  D
C485        C596   1.572       .  S
C490        C491   1.562       .  S
C490        C496   1.525       .  S
C490        C494   1.566       .  S
C490        C750   1.518       .  S
C491        H498   1.082       .  S
C491        C492   1.360       .  D
C492        C493   1.510       .  S
C493        C497   1.561       .  S
C493        C495   1.532       .  S
C493        H499   1.112       .  S
C494        H500   1.085       .  S
C494        C495   1.375       .  D
C496        H501   1.081       .  S
C496        C497   1.339       .  D
C497        C620   1.508       .  S
C502        C586   1.551       .  S
C502        C504   1.517       .  S
C502        C506   1.528       .  S
C502        C505   1.578       .  S
C503        C507   1.512       .  S
C503        C509   1.521       .  S
C503        C508   1.576       .  S
C504        C512   1.384       .  A
C504        C507   1.388       .  A
C505        C516   1.394       .  A
C505        C508   1.426       .  A
C506        C520   1.390       .  A
C506        C509   1.394       .  A
C507        C510   1.374       .  A
C508        C514   1.389       .  A
C509        C517   1.382       .  A
C510        N511   1.342       .  A
C510        H523   1.068       .  S
N511        C532   1.430       .  S
N511        C512   1.336       .  A
C512        H513   1.078       .  S
C514        N515   1.364       .  A
C514        H524   1.080       .  S
N515        C516   1.367       .  A
C516        H522   1.080       .  S
C517        N518   1.348       .  A
C517        H519   1.081       .  S
N518        C544   1.440       .  S
N518        C520   1.351       .  A
C520        H521   1.081       .  S
C525        C526   1.566       .  S
C525        C531   1.551       .  S
C525        C529   1.548       .  S
C525        C734   1.518       .  S
C526        H533   1.080       .  S
C526        C527   1.359       .  D
C527        C528   1.519       .  S
C527        N605   1.441       .  S
C528        C532   1.515       .  S
C528        C530   1.558       .  S
C528        H534   1.112       .  S
C529        H535   1.085       .  S
C529        C530   1.363       .  D
C530        C550   1.524       .  S
C531        H536   1.086       .  S
C531        C532   1.356       .  D
C537        C538   1.539       .  S
C537        C543   1.562       .  S
C537        C541   1.554       .  S
C537        C714   1.518       .  S
C538        H545   1.088       .  S
C538        C539   1.332       .  D
C539        C540   1.507       .  S
C539        N628   1.414       .  S
C540        C544   1.512       .  S
C540        C542   1.559       .  S
C540        H546   1.110       .  S
C541        H547   1.085       .  S
C541        C542   1.376       .  D
C543        H548   1.071       .  S
C543        C544   1.365       .  D
C549        C551   1.517       .  S
C549        C553   1.558       .  S
C549        C552   1.610       .  S
C550        C554   1.534       .  S
C550        C556   1.518       .  S
C550        C555   1.543       .  S
C551        C559   1.373       .  A
C551        C554   1.381       .  A
C552        C563   1.408       .  A
C552        C555   1.425       .  A
C553        C567   1.387       .  A
C553        C556   1.371       .  A
C554        C557   1.378       .  A
C555        C561   1.384       .  A
C556        C564   1.377       .  A
C557        N558   1.352       .  A
C557        H570   1.078       .  S
N558        C577   1.438       .  S
N558        C559   1.355       .  A
C559        H560   1.070       .  S
C561        N562   1.360       .  A
C561        H571   1.082       .  S
N562        C563   1.371       .  A
C563        H569   1.080       .  S
C564        N565   1.351       .  A
C564        H566   1.081       .  S
N565        C589   1.459       .  S
N565        C567   1.362       .  A
C567        H568   1.064       .  S
C572        C573   1.546       .  S
C572        C578   1.532       .  S
C572        C576   1.549       .  S
C572        C696   1.486   1_554  S
C573        H580   1.085       .  S
C573        C574   1.365       .  D
C574        C575   1.529       .  S
C575        C579   1.545       .  S
C575        C577   1.529       .  S
C575        H581   1.112       .  S
C576        H582   1.085       .  S
C576        C577   1.362       .  D
C578        H583   1.075   1_554  S
C578        C579   1.345       .  D
C579        C597   1.507       .  S
C584        C585   1.525       .  S
C584        C590   1.550       .  S
C584        C588   1.554       .  S
C584        C680   1.504       .  S
C585        H592   1.083       .  S
C585        C586   1.351       .  D
C586        C587   1.598       .  S
C587        C591   1.571       .  S
C587        C589   1.537       .  S
C587        H593   1.110       .  S
C588        H594   1.086       .  S
C588        C589   1.368       .  D
C590        H595   1.081       .  S
C590        C591   1.351       .  D
C591        C619   1.543       .  S
C596        C598   1.541       .  S
C596        C600   1.554       .  S
C596        C599   1.621       .  S
C597        C601   1.525       .  S
C597        C603   1.503       .  S
C597        C602   1.530   1_554  S
C598        C606   1.389       .  A
C598        C601   1.395       .  A
C599        C610   1.423   1_554  A
C599        C602   1.420   1_554  A
C600        C614   1.389       .  A
C600        C603   1.359       .  A
C601        C604   1.373       .  A
C602        C608   1.373       .  A
C603        C611   1.367       .  A
C604        N605   1.343       .  A
C604        H617   1.078       .  S
N605        C606   1.360       .  A
C606        H607   1.079       .  S
C608        N609   1.346       .  A
C608        H618   1.076       .  S
N609        C610   1.382       .  A
N609        N632   1.428       .  S
C610        H616   1.081       .  S
C611        N612   1.352       .  A
C611        H613   1.076       .  S
N612        C614   1.353       .  A
C614        H615   1.046       .  S
C619        C621   1.526       .  S
C619        C623   1.567       .  S
C619        C622   1.591       .  S
C620        C624   1.490       .  S
C620        C626   1.517       .  S
C620        C625   1.559       .  S
C621        C629   1.374       .  A
C621        C624   1.377       .  A
C622        C633   1.410       .  A
C622        C625   1.414       .  A
C623        C637   1.398       .  A
C623        C626   1.378       .  A
C624        C627   1.360       .  A
C625        C631   1.386       .  A
C626        C634   1.374       .  A
C627        N628   1.325       .  A
C627        H640   1.075       .  S
N628        C629   1.348       .  A
C629        H630   1.067       .  S
C631        N632   1.362       .  A
C631        H641   1.079       .  S
N632        C633   1.375       .  A
C633        H639   1.080       .  S
C634        N635   1.353       .  A
C634        H636   1.071       .  S
N635        C637   1.373       .  A
C637        H638   1.078       .  S
O642        C650   1.273       .  A
O642       Co662   1.898   1_455  S
O643        C651   1.274       .  A
O643       Co663   1.982       .  S
O644        C652   1.234       .  A
O644       Co664   1.910       .  S
O645        C653   1.271       .  A
O645       Co665   2.018       .  S
O646        C652   1.274       .  A
O646       Co663   2.037       .  S
O647        C653   1.259       .  A
O647       Co662   1.966       .  S
O648        C651   1.272       .  A
O648       Co665   2.017       .  S
O649        C650   1.298   1_655  A
O649       Co664   2.081       .  S
C650        C806   1.472       .  S
C651        C716   1.484       .  S
C652        C752   1.461   1_565  S
C653        C768   1.460   1_556  S
O654        C667   1.264       .  A
O654       Co662   1.995       .  S
O655        C668   1.280       .  A
O655       Co663   2.037       .  S
O656        C669   1.226       .  A
O656       Co664   1.921       .  S
O657        C670   1.266       .  A
O657       Co665   1.973       .  S
O658        C670   1.263       .  A
O658       Co663   2.005       .  S
O659        C669   1.265       .  A
O659       Co662   2.031       .  S
O660        C667   1.262       .  A
O660       Co665   1.976       .  S
O661        C668   1.265       .  A
O661       Co664   1.954       .  S
Co662       O666   1.967       .  S
Co663       O666   2.066       .  S
Co664       O666   2.038       .  S
Co665       O666   2.038       .  S
C667        C732   1.466       .  S
C668        C786   1.462       .  S
C669        C698   1.446   1_655  S
C670        C678   1.486       .  S
C671        C672   1.412       .  A
C671        C676   1.403       .  A
C671        C679   1.478       .  S
C672        C673   1.380       .  A
C672        H681   1.080       .  S
C673        C674   1.394       .  A
C673        H682   1.084       .  S
C674        C675   1.399       .  A
C674        C677   1.458       .  S
C675        C676   1.397       .  A
C675        H683   1.082       .  S
C676        H684   1.083       .  S
C677        H685   1.086       .  S
C677        C678   1.340       .  D
C678        H686   1.086       .  S
C679        H687   1.087       .  S
C679        C680   1.338       .  D
C680        H688   1.077       .  S
C689        C690   1.397       .  A
C689        C694   1.413       .  A
C689        C697   1.467       .  S
C690        C691   1.388       .  A
C690        H699   1.084       .  S
C691        C692   1.404       .  A
C691        H700   1.083       .  S
C692        C693   1.395       .  A
C692        C695   1.460       .  S
C693        C694   1.388       .  A
C693        H701   1.084       .  S
C694        H702   1.081       .  S
C695        H703   1.088       .  S
C695        C696   1.343       .  D
C696        H704   1.082       .  S
C697        H705   1.089   1_455  S
C697        C698   1.327       .  D
C698        H706   1.087       .  S
C707        C708   1.393       .  A
C707        C712   1.406       .  A
C707        C715   1.472       .  S
C708        C709   1.391       .  A
C708        H717   1.084       .  S
C709        C710   1.408       .  A
C709        H718   1.082       .  S
C710        C711   1.404       .  A
C710        C713   1.480       .  S
C711        C712   1.403       .  A
C711        H719   1.081       .  S
C712        H720   1.083       .  S
C713        H721   1.087       .  S
C713        C714   1.354       .  D
C714        H722   1.084       .  S
C715        H723   1.086   1_556  S
C716        H724   1.085   1_556  S
C725        C726   1.408       .  A
C725        C730   1.399       .  A
C725        C733   1.479       .  S
C726        C727   1.401       .  A
C726        H735   1.082       .  S
C727        C728   1.402       .  A
C727        H736   1.083       .  S
C728        C729   1.398   1_554  A
C728        C731   1.474   1_554  S
C729        C730   1.389   1_556  A
C729        H737   1.083       .  S
C730        H738   1.079   1_554  S
C731        H739   1.085       .  S
C731        C732   1.345       .  D
C732        H740   1.076       .  S
C733        H741   1.088       .  S
C733        C734   1.337       .  D
C734        H742   1.087       .  S
C743        C744   1.396       .  A
C743        C748   1.393       .  A
C743        C751   1.446       .  S
C744        C745   1.392       .  A
C744        H753   1.082       .  S
C745        C746   1.400       .  A
C745        H754   1.083       .  S
C746        C747   1.406       .  A
C746        C749   1.467   1_655  S
C747        C748   1.378       .  A
C747        H755   1.075   1_655  S
C749        H757   1.086       .  S
C749        C750   1.338       .  D
C750        H758   1.088       .  S
C751        H759   1.082       .  S
C752        H760   1.083       .  S
C761        C762   1.396       .  A
C761        C766   1.403       .  A
C761        C769   1.461       .  S
C762        C763   1.386       .  A
C762        H771   1.082       .  S
C763        C764   1.411       .  A
C763        H772   1.078       .  S
C764        C765   1.399       .  A
C764        C767   1.474       .  S
C765        C766   1.392       .  A
C765        H773   1.084       .  S
C766        H774   1.084       .  S
C767        H775   1.085       .  S
C768        H776   1.082       .  S
C769        H777   1.089       .  S
C769        C770   1.351       .  D
C770        H778   1.085       .  S
C779        C780   1.403       .  A
C779        C784   1.406       .  A
C779        C787   1.490   1_655  S
C780        C781   1.403       .  A
C780        H789   1.083       .  S
C781        C782   1.408       .  A
C781        H790   1.083       .  S
C782        C783   1.407       .  A
C782        C785   1.497       .  S
C783        C784   1.393       .  A
C783        H791   1.073       .  S
C784        H792   1.082       .  S
C785        H793   1.088       .  S
C785        C786   1.347       .  D
C786        H794   1.078       .  S
C787        H795   1.085       .  S
C787        C788   1.349       .  D
C788        H796   1.072       .  S
C797        C798   1.400       .  A
C797        C802   1.413       .  A
C797        C805   1.490       .  S
C798        C799   1.395   1_556  A
C798        H807   1.083       .  S
C799        C800   1.408       .  A
C799        H808   1.083       .  S
C800        C801   1.398   1_554  A
C800        C803   1.483       .  S
C801        C802   1.401       .  A
C801        H809   1.083   1_455  S
C802        H810   1.079   1_455  S
C803        H811   1.087       .  S
C803        C804   1.350       .  D
C804        H812   1.087       .  S
C806        H814   1.075   1_565  S
