geometry optimzed in LAMMPS
_audit_creation_date              2020-12-01 
_audit_creation_method            'lammps2cif' 
_symmetry_space_group_name_H-M    'P1' 
_symmetry_Int_Tables_number       1 
_symmetry_cell_setting            triclinic 
loop_ 
_symmetry_equiv_pos_as_xyz 
  x,y,z 
_cell_length_a                    42.25431772 
_cell_length_b                    43.11710751442817 
_cell_length_c                    44.15516657595179 
_cell_angle_alpha                 92.47223104461345 
_cell_angle_beta                  90.23467928711513 
_cell_angle_gamma                 90.00398769233085 
loop_ 
_atom_site_label 
_atom_site_type_symbol 
_atom_site_fract_x 
_atom_site_fract_y 
_atom_site_fract_z 
_atom_site_charge 
C1          C  0.21592834  0.21528394  0.22759555     0.86300
C2          C  0.23572585  0.19534051  0.24851158    -0.53900
C3          C  0.25454617  0.21173476  0.26880648     0.09200
C4          C  0.25142655  0.24747256  0.26638324     0.20200
C5          C  0.19724617  0.23703193  0.24947405    -0.54600
C6          C  0.21545093  0.25394091  0.26978222     0.09400
C7          C  0.23991753  0.23657272  0.21290133    -0.54200
C8          C  0.25885012  0.25334514  0.23276692     0.09900
H9          H  0.23547281  0.17014035  0.24669903     0.14400
H10         H  0.26636488  0.26098652  0.28293786     0.00200
H11         H  0.17180194  0.23955624  0.24940429     0.14700
H12         H  0.24146985  0.23825188  0.18848500     0.14500
C13         C  0.08525077  0.46473384  0.43642171     0.29800
C14         C  0.08516847  0.51650727  0.47498308     0.29800
C15         C  0.09123130  0.49593878  0.42206944    -0.06400
C16         C  0.05315287  0.47138429  0.45292332    -0.07100
C17         C  0.10861460  0.46479872  0.46304933    -0.07000
C18         C  0.09152316  0.52202352  0.44135877    -0.06400
C19         C  0.05319735  0.49817971  0.47301258    -0.07100
C20         C  0.10870759  0.49086892  0.48230014    -0.07000
C21         C  0.10027685  0.54671269  0.42423319    -0.32400
N22         N  0.10526577  0.53607909  0.39516955     0.14100
C23         C  0.09928914  0.50514242  0.39366613    -0.32400
H24         H  0.10244385  0.49000758  0.37372496     0.16000
C25         C  0.02174847  0.50633838  0.47743704    -0.31400
N26         N  0.00275601  0.48561684  0.46190029     0.12800
C27         C  0.02158908  0.46497987  0.44612598    -0.31400
C28         C  0.12187164  0.48232282  0.50934343    -0.31700
N29         N  0.13034811  0.45189794  0.50710159     0.13300
H30         H  0.12292652  0.49708608  0.52970512     0.15900
C31         C  0.12136983  0.44094363  0.47903498    -0.31700
H32         H  0.12132292  0.41679133  0.47135603     0.15900
H33         H  0.01310132  0.44784761  0.42944958     0.15900
H34         H  0.10366395  0.57045186  0.43252667     0.16000
H35         H  0.01334120  0.52735397  0.48892204     0.16000
C36         C  0.21456104  0.76476457  0.68834498     0.86300
C37         C  0.23592669  0.78331782  0.66757901    -0.53900
C38         C  0.25468942  0.76565126  0.64849011     0.09200
C39         C  0.24959033  0.73018862  0.65140217     0.20200
C40         C  0.19557311  0.74359536  0.66628745    -0.54600
C41         C  0.21332475  0.72524006  0.64690324     0.09400
C42         C  0.23717591  0.74304939  0.70436144    -0.54200
C43         C  0.25595552  0.72509354  0.68550151     0.09900
H44         H  0.23597770  0.80834050  0.66692062     0.14400
H45         H  0.26451437  0.71561777  0.63582721     0.00200
H46         H  0.16988599  0.74278090  0.66651910     0.14700
H47         H  0.23829283  0.74225070  0.72889692     0.14500
C48         C  0.46415260  0.08178751  0.42557014     0.29800
C49         C  0.51421048  0.07830759  0.46528701     0.29800
C50         C  0.46268922  0.10350260  0.45437675    -0.06400
C51         C  0.47007700  0.04959549  0.43903810    -0.07100
C52         C  0.49721802  0.09058121  0.41279018    -0.07000
C53         C  0.48812218  0.10172714  0.47426269    -0.06400
C54         C  0.49549657  0.04833463  0.45913811    -0.07100
C55         C  0.52286686  0.08846762  0.43319289    -0.07000
C56         C  0.48180597  0.12129638  0.49894674    -0.32400
N57         N  0.45282968  0.13431116  0.49532679     0.14100
C58         C  0.44132252  0.12410058  0.46782851    -0.32400
H59         H  0.41837639  0.13006405  0.45897377     0.16000
C60         C  0.49827598  0.01831628  0.46815934    -0.31400
N61         N  0.47510019  0.00097744  0.45458809     0.12800
C62         C  0.45791600  0.01953723  0.43632821    -0.31400
C63         C  0.54569969  0.10908658  0.42385360    -0.31700
N64         N  0.53616791  0.12241125  0.39818819     0.13300
H65         H  0.56638349  0.11664476  0.43658844     0.15900
C66         C  0.50616934  0.11266379  0.39230980    -0.31700
H67         H  0.49106794  0.12281340  0.37565221     0.15900
H68         H  0.43917750  0.01152784  0.42120204     0.15900
H69         H  0.49696978  0.12517433  0.51850445     0.16000
H70         H  0.51674020  0.00932531  0.48241740     0.16000
C71         C  0.75654373  0.25836288  0.18463509     0.86300
C72         C  0.77619448  0.28174188  0.20381125    -0.53900
C73         C  0.75901208  0.30298980  0.22077394     0.09200
C74         C  0.72259918  0.29890640  0.21644588     0.20200
C75         C  0.73398846  0.24391566  0.20718331    -0.54600
C76         C  0.71576015  0.26464892  0.22377215     0.09400
C77         C  0.73492565  0.27857405  0.16544280    -0.54200
C78         C  0.71688896  0.29958503  0.18172968     0.09900
H79         H  0.80184988  0.28058848  0.20471958     0.14400
H80         H  0.70809178  0.31611470  0.22963305     0.00200
H81         H  0.73273636  0.21900426  0.20962544     0.14700
H82         H  0.73303326  0.27668455  0.14103680     0.14500
C83         C  0.23253146  0.23074256  0.73844782     0.86300
C84         C  0.21465638  0.25387189  0.71911199    -0.53900
C85         C  0.23339747  0.27585788  0.70683380     0.09200
C86         C  0.26861198  0.27269510  0.71522983     0.20200
C87         C  0.25842246  0.21734062  0.71699394    -0.54600
C88         C  0.27715101  0.23932781  0.70470340     0.09400
C89         C  0.25069888  0.25095787  0.76211625    -0.54200
C90         C  0.26978008  0.27289769  0.75017820     0.09900
H91         H  0.18926379  0.25266054  0.71537650     0.14400
H92         H  0.28392893  0.29038993  0.70524502     0.00200
H93         H  0.26102467  0.19308071  0.71027485     0.14700
H94         H  0.24915929  0.24740621  0.78626300     0.14500
C95         C  0.88643342  0.50991237  0.48534198     0.29800
C96         C  0.88480983  0.47093951  0.43379574     0.29800
C97         C  0.87054518  0.52295902  0.45692986    -0.06400
C98         C  0.91904250  0.49887099  0.47267950    -0.07100
C99         C  0.86838539  0.47880650  0.48785264    -0.07000
C100        C  0.87045241  0.50338247  0.43106920    -0.06400
C101        C  0.91852481  0.47890199  0.44642825    -0.07100
C102        C  0.86861763  0.45919052  0.46202840    -0.07000
C103        C  0.85570356  0.51873782  0.40824580    -0.32400
N104        N  0.84637305  0.54696846  0.41943509     0.14100
C105        C  0.85474908  0.54966638  0.44912794    -0.32400
H106        H  0.84894098  0.56955281  0.46377170     0.16000
C107        C  0.95000087  0.47195563  0.43982566    -0.31400
N108        N  0.96909504  0.48701037  0.46071634     0.12800
C109        C  0.95039677  0.50338065  0.48078312    -0.31400
C110        C  0.85275414  0.43247377  0.46845442    -0.31700
N111        N  0.84184713  0.43536217  0.49718808     0.13300
H112        H  0.84916483  0.41243718  0.45320189     0.15900
C113        C  0.85048633  0.46372997  0.50903627    -0.31700
H114        H  0.84407215  0.47232715  0.53149268     0.15900
H115        H  0.95884970  0.51726044  0.50014117     0.15900
H116        H  0.85245242  0.51021656  0.38503000     0.16000
H117        H  0.95858740  0.45728671  0.42125378     0.16000
C118        C  0.74129087  0.78009345  0.20145284     0.86300
C119        C  0.72224192  0.80314770  0.22156642    -0.53900
C120        C  0.70312709  0.78973100  0.24218317     0.09200
C121        C  0.70525096  0.75390438  0.24088498     0.20200
C122        C  0.75934471  0.75995834  0.22360306    -0.54600
C123        C  0.74063919  0.74621792  0.24427894     0.09400
C124        C  0.71615105  0.75792966  0.18712158    -0.54200
C125        C  0.69742357  0.74408585  0.20778603     0.09900
H126        H  0.72408307  0.82808893  0.21958642     0.14400
H127        H  0.68981731  0.74246950  0.25729957     0.00200
H128        H  0.78482148  0.75671912  0.22277302     0.14700
H129        H  0.71383753  0.75209513  0.16316445     0.14500
C130        C  0.74620128  0.18930498  0.69652611     0.86300
C131        C  0.72584935  0.16605106  0.67772043    -0.53900
C132        C  0.70286443  0.17927852  0.66061552     0.09200
C133        C  0.70250304  0.21509979  0.66398880     0.20200
C134        C  0.75915447  0.21146904  0.67302124    -0.54600
C135        C  0.73630193  0.22503482  0.65606629     0.09400
C136        C  0.72249571  0.20906330  0.71509513    -0.54200
C137        C  0.69977819  0.22298134  0.69825223     0.09900
H138        H  0.73011796  0.14121415  0.67739170     0.14400
H139        H  0.68407097  0.22617559  0.65019971     0.00200
H140        H  0.78383897  0.21701452  0.67010869     0.14700
H141        H  0.72411961  0.21213410  0.73959171     0.14500
C142        C  0.45800303  0.88515701  0.47492849     0.29800
C143        C  0.50968635  0.88883845  0.43740646     0.29800
C144        C  0.45586531  0.86747685  0.44406159    -0.06400
C145        C  0.46647219  0.91868558  0.46495953    -0.07100
C146        C  0.48993810  0.87384843  0.48762607    -0.07000
C147        C  0.48193943  0.86912806  0.42548815    -0.06400
C148        C  0.49329841  0.92012196  0.44597634    -0.07100
C149        C  0.51607737  0.87588316  0.46884448    -0.07000
C150        C  0.47531559  0.85205806  0.39922376    -0.32400
N151        N  0.44564109  0.84016320  0.40115497     0.14100
C152        C  0.43355255  0.84963342  0.42854357    -0.32400
H153        H  0.40999631  0.84463616  0.43645210     0.16000
C154        C  0.49850165  0.95087127  0.44036795    -0.31400
N155        N  0.47519669  0.96817415  0.45332273     0.12800
C156        C  0.45569907  0.94929117  0.46882084    -0.31400
C157        C  0.54122649  0.86253852  0.48364152    -0.31700
N158        N  0.53093089  0.85156328  0.51030262     0.13300
H159        H  0.56502294  0.85971472  0.47503130     0.15900
C160        C  0.49965936  0.85858751  0.51299063    -0.31700
H161        H  0.48483727  0.85242215  0.53170846     0.15900
H162        H  0.43603456  0.95760943  0.48222262     0.15900
H163        H  0.49115691  0.84860397  0.38018950     0.16000
H164        H  0.51859695  0.96065214  0.42871775     0.16000
C165        C  0.23216356  0.73625396  0.15971123     0.86300
C166        C  0.21324956  0.71338313  0.17829370    -0.53900
C167        C  0.23066111  0.68966894  0.18975124     0.09200
C168        C  0.26614024  0.69149354  0.18128497     0.20200
C169        C  0.25885531  0.74741847  0.18133184    -0.54600
C170        C  0.27669619  0.72422855  0.19263707     0.09400
C171        C  0.24889438  0.71595006  0.13531233    -0.54200
C172        C  0.26671196  0.69244806  0.14630493     0.09900
H173        H  0.18826591  0.71685294  0.18278982     0.14400
H174        H  0.28123164  0.67290020  0.19005403     0.00200
H175        H  0.26302115  0.77127609  0.18865769     0.14700
H176        H  0.24635149  0.71973174  0.11127296     0.14500
C177        C  0.75360881  0.72284150  0.72946490     0.86300
C178        C  0.77462052  0.69998506  0.71109716    -0.53900
C179        C  0.75868388  0.67850151  0.69297438     0.09200
C180        C  0.72202668  0.68186123  0.69565154     0.20200
C181        C  0.73191690  0.73702179  0.70588870    -0.54600
C182        C  0.71533292  0.71603286  0.68795772     0.09400
C183        C  0.73158164  0.70196647  0.74735825    -0.54200
C184        C  0.71466643  0.68075011  0.73004562     0.09900
H185        H  0.80020815  0.70201753  0.71140039     0.14400
H186        H  0.70844940  0.66460625  0.68149579     0.00200
H187        H  0.72951670  0.76195664  0.70408773     0.14700
H188        H  0.72899067  0.70329664  0.77171151     0.14500
C189        C  0.50784261  0.46059191  0.05065302     0.34200
C190        C  0.45663491  0.49949606  0.04503550     0.29800
C191        C  0.50902056  0.49187754  0.06886670    -0.06400
C192        C  0.50135544  0.47175805  0.01786407    -0.07100
C193        C  0.47526204  0.44736831  0.05966651    -0.07000
C194        C  0.48306458  0.51124981  0.06661576    -0.06400
C195        C  0.47507989  0.49157894  0.01573860    -0.07100
C196        C  0.44935685  0.46723871  0.05738711    -0.07000
C197        C  0.48943761  0.53766569  0.08446409    -0.32400
N198        N  0.51880839  0.53506748  0.09683719     0.14100
C199        C  0.53088465  0.50714625  0.08731893    -0.32400
H200        H  0.55439002  0.49890013  0.09249117     0.16000
C201        C  0.47220664  0.50006727  0.98618458    -0.31400
N202        N  0.49593208  0.48672983  0.96976778     0.12800
C203        C  0.51365210  0.46904257  0.98843764    -0.31400
C204        C  0.42624769  0.45582015  0.07618850    -0.31700
N205        N  0.43609626  0.42871575  0.08771372     0.13300
H206        H  0.40459997  0.46750516  0.08274774     0.15900
C207        C  0.46609959  0.42349614  0.07779058    -0.31700
H208        H  0.48125987  0.40517882  0.08545708     0.15900
H209        H  0.53320901  0.45475401  0.98072377     0.15900
H210        H  0.47396812  0.55744451  0.08802015     0.16000
H211        H  0.45360871  0.51419407  0.97699598     0.16000
C212        C  0.51053401  0.51024694  0.85685432     0.29800
C213        C  0.46076482  0.46929164  0.86031266     0.29800
C214        C  0.51348830  0.47926517  0.83857745    -0.06400
C215        C  0.50361848  0.49848403  0.88945499    -0.07100
C216        C  0.47761574  0.52227439  0.84736218    -0.07000
C217        C  0.48834306  0.45900273  0.84015366    -0.06400
C218        C  0.47785441  0.47750123  0.89074402    -0.07100
C219        C  0.45258607  0.50170672  0.84928996    -0.07000
C220        C  0.49773475  0.43100323  0.82712715    -0.32400
N221        N  0.52796778  0.43367483  0.81732991     0.14100
C222        C  0.53797902  0.46303997  0.82464513    -0.32400
H223        H  0.56158699  0.47180414  0.82100277     0.16000
C224        C  0.47364949  0.47064195  0.92066000    -0.31400
N225        N  0.49632297  0.48519771  0.93768649     0.12800
C226        C  0.51443389  0.50270875  0.91934974    -0.31400
C227        C  0.42611390  0.51609079  0.83790502    -0.31700
N228        N  0.43441982  0.54446650  0.82825294     0.13300
H229        H  0.40260924  0.50626424  0.83605927     0.15900
C230        C  0.46581488  0.54856881  0.83429465    -0.31700
H231        H  0.47952386  0.56853314  0.82817290     0.15900
H232        H  0.53301771  0.51814266  0.92748633     0.15900
H233        H  0.48417131  0.40970319  0.82666579     0.16000
H234        H  0.45454030  0.45752324  0.93004132     0.16000
N235        N  0.02714430  0.05027662  0.99008453    -0.06300
N236        N  0.03386546  0.07107269  0.01203052    -0.58400
N237        N  0.04539120  0.02537092  0.91938276    -0.06000
N238        N  0.06507542  0.02932586  0.89673799    -0.60500
N239        N  0.02372091  0.04726279  0.92031641    -0.05600
N240        N  0.02812874  0.06646049  0.89826422    -0.58400
N241        N  0.04876157  0.02830677  0.98893219    -0.05200
N242        N  0.07055550  0.03365134  0.01000278    -0.60900
C243        C  0.06095569  0.06033219  0.02435093     0.95900
C244        C  0.05392555  0.05496692  0.88361312     0.95700
N245        N  0.02213961  0.93115744  0.92022243    -0.06500
N246        N  0.02572213  0.91029298  0.89770152    -0.59000
N247        N  0.04745562  0.95561577  0.98906226    -0.04600
N248        N  0.06902451  0.95106515  0.01013111    -0.60200
N249        N  0.02488785  0.93471262  0.99016095    -0.06500
N250        N  0.03058590  0.91559384  0.01208479    -0.59200
N251        N  0.04430313  0.95249738  0.91932231    -0.04200
N252        N  0.06339411  0.94663523  0.89620077    -0.60300
Mn253      Mn  0.04744618  0.99041464  0.95410135     1.18400
C254        C  0.05148825  0.92030856  0.88280349     0.98000
C255        C  0.05812063  0.92612191  0.02450120     0.98600
N256        N  0.94958536  0.04873231  0.92268067    -0.06500
N257        N  0.94454034  0.06740676  0.90022715    -0.62800
N258        N  0.92955062  0.03090758  0.99283228    -0.05300
N259        N  0.90947624  0.03780950  0.01501001    -0.63500
N260        N  0.95221608  0.05180965  0.99247377    -0.06000
N261        N  0.94803452  0.07326099  0.01435413    -0.63100
N262        N  0.92752164  0.02722663  0.92297137    -0.04900
N263        N  0.90708279  0.03072948  0.90071964    -0.63800
Mn264      Mn  0.98818168  0.05052907  0.95649648     1.10700
C265        C  0.91801711  0.05581867  0.88666366     0.99200
C266        C  0.92137095  0.06421659  0.02841134     0.99300
N267        N  0.95032373  0.93595774  0.99225380    -0.06000
N268        N  0.94515726  0.91669689  0.01411846    -0.61400
N269        N  0.92589685  0.95377902  0.92305858    -0.05300
N270        N  0.90407153  0.94689326  0.90223876    -0.58100
N271        N  0.94781297  0.93209402  0.92280310    -0.06700
N272        N  0.94145060  0.91020119  0.90187823    -0.61000
N273        N  0.92870896  0.95791312  0.99269156    -0.05600
N274        N  0.90850144  0.95414270  0.01489206    -0.58200
Mn275      Mn  0.98631944  0.93254067  0.95642450     1.20200
Mn276      Mn  0.92690894  0.99251529  0.95785859     1.10100
Cl277      Cl  0.98718597  0.99150521  0.95624205    -0.86100
C278        C  0.91910595  0.92843898  0.02818291     0.96200
C279        C  0.91420506  0.91968636  0.88903917     0.96000
C280        C  0.89556007  0.89999092  0.86709446    -0.03500
C281        C  0.86595415  0.90970064  0.85631235    -0.09300
C282        C  0.84798716  0.89010608  0.83671014    -0.16900
C283        C  0.85940905  0.86061742  0.82762929     0.25200
C284        C  0.88905284  0.85105749  0.83795227    -0.18600
C285        C  0.90700218  0.87055742  0.85745464    -0.07500
C286        C  0.84051072  0.83956201  0.80865516    -0.14000
C287        C  0.82531186  0.82042894  0.79395704    -0.13700
C288        C  0.80734406  0.79624000  0.77799085     0.25100
C289        C  0.81099773  0.79054018  0.74676442    -0.19100
C290        C  0.79374676  0.76676603  0.73163859    -0.07600
C291        C  0.77257297  0.74797402  0.74739639    -0.03600
C292        C  0.76916834  0.75413227  0.77892944    -0.09000
C293        C  0.78638820  0.77795107  0.79393617    -0.16600
H294        H  0.85653323  0.93222725  0.86331497     0.11500
H295        H  0.82505582  0.89779788  0.82895098     0.10800
H296        H  0.89816785  0.82831536  0.83120828     0.10800
H297        H  0.92969539  0.86236806  0.86531762     0.11300
H298        H  0.82715560  0.80447892  0.73406654     0.11400
H299        H  0.79684114  0.76303926  0.70742106     0.11300
H300        H  0.75315315  0.74124578  0.79249597     0.11500
H301        H  0.78328295  0.78212766  0.81811251     0.10300
C302        C  0.69035403  0.66073062  0.74432912    -0.03500
C303        C  0.67074777  0.67361963  0.76738060    -0.09300
C304        C  0.65055539  0.65492200  0.78384740    -0.16900
C305        C  0.64939605  0.62281705  0.77777861     0.25200
C306        C  0.66799487  0.60981923  0.75407594    -0.18600
C307        C  0.68823154  0.62866167  0.73736429    -0.07500
C308        C  0.62892881  0.60367816  0.79587400    -0.14000
C309        C  0.61047772  0.58855127  0.81037193    -0.13700
C310        C  0.58582522  0.56995850  0.82383077     0.25100
C311        C  0.56284139  0.55659816  0.80469747    -0.19100
C312        C  0.53899170  0.53827295  0.81624701    -0.07600
C313        C  0.53705597  0.53238326  0.84748131    -0.03600
C314        C  0.56005636  0.54617190  0.86693979    -0.09000
C315        C  0.58426429  0.56490075  0.85515394    -0.16600
H316        H  0.67139254  0.69831061  0.77302538     0.11500
H317        H  0.63612963  0.66553477  0.80167463     0.10800
H318        H  0.66723227  0.58506002  0.74880874     0.10800
H319        H  0.70305526  0.61804938  0.71986746     0.11300
H320        H  0.56343078  0.56015071  0.78055235     0.11400
H321        H  0.52194340  0.52805496  0.80036545     0.11300
H322        H  0.55970989  0.54241764  0.89090741     0.11500
H323        H  0.60183985  0.57520138  0.87041265     0.10300
C324        C  0.21123999  0.76120139  0.14621913    -0.03500
C325        C  0.18605125  0.75182560  0.12685929    -0.09300
C326        C  0.16637334  0.77372510  0.11381108    -0.16900
C327        C  0.17148662  0.80544237  0.11986388     0.25200
C328        C  0.19629061  0.81515249  0.13894367    -0.18600
C329        C  0.21602308  0.79339097  0.15196401    -0.07500
C330        C  0.15160879  0.82816520  0.10630614    -0.14000
C331        C  0.13524272  0.84726024  0.09468360    -0.13700
C332        C  0.11543153  0.86902914  0.07968055     0.25100
C333        C  0.12869934  0.89506215  0.06668837    -0.19100
C334        C  0.10974770  0.91460036  0.04977861    -0.07600
C335        C  0.07739009  0.90806337  0.04545914    -0.03600
C336        C  0.06404428  0.88262698  0.05963532    -0.09000
C337        C  0.08297236  0.86324677  0.07665157    -0.16600
H338        H  0.18167218  0.72739171  0.12180194     0.11500
H339        H  0.14723952  0.76591070  0.09896013     0.10800
H340        H  0.20052615  0.83967995  0.14367814     0.10800
H341        H  0.23485971  0.80254504  0.16613897     0.11300
H342        H  0.15380518  0.89978500  0.06894969     0.11400
H343        H  0.12063744  0.93409326  0.03917601     0.11300
H344        H  0.03914130  0.87723098  0.05690044     0.11500
H345        H  0.07244429  0.84325356  0.08673166     0.10300
C346        C  0.42914616  0.52225486  0.04125025    -0.03500
C347        C  0.43546213  0.55401813  0.03788926    -0.09300
C348        C  0.41135256  0.57611160  0.04153172    -0.16900
C349        C  0.38031419  0.56666355  0.04712136     0.25200
C350        C  0.37303682  0.53497821  0.04579346    -0.18600
C351        C  0.39719215  0.51293312  0.04209042    -0.07500
C352        C  0.35699156  0.58910479  0.05756959    -0.14000
C353        C  0.33911051  0.60734486  0.07010547    -0.13700
C354        C  0.31965830  0.62841339  0.08829314     0.25100
C355        C  0.30604213  0.61848293  0.11509069    -0.19100
C356        C  0.28881277  0.63923906  0.13390572    -0.07600
C357        C  0.28489345  0.67029470  0.12617713    -0.03600
C358        C  0.29842088  0.68000971  0.09903142    -0.09000
C359        C  0.31569447  0.65923246  0.08028359    -0.16600
H360        H  0.45944376  0.56195715  0.03454561     0.11500
H361        H  0.41724206  0.60056745  0.04155579     0.10800
H362        H  0.34889264  0.52727143  0.04880373     0.10800
H363        H  0.39065190  0.48873881  0.04036017     0.11300
H364        H  0.30899808  0.59471664  0.12161398     0.11400
H365        H  0.27831634  0.63086359  0.15432239     0.11300
H366        H  0.29625786  0.70385445  0.09256700     0.11500
H367        H  0.32633541  0.66733131  0.05978506     0.10300
C368        C  0.54950502  0.83350331  0.53080996    -0.03500
C369        C  0.58226778  0.83860870  0.53399692    -0.09300
C370        C  0.60053498  0.82061600  0.55313510    -0.16900
C371        C  0.58653634  0.79703625  0.56935602     0.25200
C372        C  0.55388502  0.79177262  0.56641329    -0.18600
C373        C  0.53549871  0.80988969  0.54735164    -0.07500
C374        C  0.60590781  0.77857609  0.58896286    -0.14000
C375        C  0.62388430  0.76474988  0.60508824    -0.13700
C376        C  0.64739616  0.75082535  0.62433155     0.25100
C377        C  0.64116329  0.72327319  0.63908079    -0.19100
C378        C  0.66371052  0.71107658  0.65887076    -0.07600
C379        C  0.69269601  0.72641789  0.66431716    -0.03600
C380        C  0.69907290  0.75346118  0.64856506    -0.09000
C381        C  0.67665203  0.76553002  0.62888364    -0.16600
H382        H  0.59372692  0.85671374  0.52187121     0.11500
H383        H  0.62570882  0.82511152  0.55524121     0.10800
H384        H  0.54266586  0.77361171  0.57873362     0.10800
H385        H  0.51043932  0.80501525  0.54509488     0.11300
H386        H  0.61866503  0.71155439  0.63576264     0.11400
H387        H  0.65796548  0.69039189  0.67077122     0.11300
H388        H  0.72136496  0.76558341  0.65171222     0.11500
H389        H  0.68199683  0.78668809  0.61752958     0.10300
C390        C  0.30211956  0.73104290  0.21535600    -0.03500
C391        C  0.32080123  0.75791771  0.21339571    -0.09300
C392        C  0.34150428  0.76698033  0.23686565    -0.16900
C393        C  0.34404746  0.74921907  0.26251930     0.25200
C394        C  0.32654418  0.72180682  0.26418239    -0.18600
C395        C  0.30575294  0.71274204  0.24069256    -0.07500
C396        C  0.36336592  0.76015034  0.28764993    -0.14000
C397        C  0.37883133  0.77142186  0.30830000    -0.13700
C398        C  0.39671944  0.78723086  0.33204074     0.25100
C399        C  0.38739007  0.78565711  0.36229467    -0.19100
C400        C  0.40373107  0.80262467  0.38508284    -0.07600
C401        C  0.42951391  0.82162589  0.37786342    -0.03600
C402        C  0.43891742  0.82261161  0.34734429    -0.09000
C403        C  0.42265469  0.80551413  0.32466536    -0.16600
H404        H  0.31886762  0.77234218  0.19399925     0.11500
H405        H  0.35497835  0.78823246  0.23530785     0.10800
H406        H  0.32824350  0.70793826  0.28400989     0.10800
H407        H  0.29147597  0.69237863  0.24319367     0.11300
H408        H  0.36729470  0.77157808  0.36823707     0.11400
H409        H  0.39612748  0.80080629  0.40829105     0.11300
H410        H  0.45829269  0.83719134  0.34073786     0.11500
H411        H  0.42994418  0.80703696  0.30127926     0.10300
C412        C  0.90171392  0.06994174  0.86106592    -0.03500
C413        C  0.87665284  0.05420919  0.84605900    -0.09300
C414        C  0.86021543  0.06810741  0.82270935    -0.16900
C415        C  0.86855552  0.09790017  0.81420944     0.25200
C416        C  0.89385033  0.11349085  0.82866090    -0.18600
C417        C  0.91044888  0.09954834  0.85190801    -0.07500
C418        C  0.85001709  0.11314280  0.79191328    -0.14000
C419        C  0.83321964  0.12637631  0.77455522    -0.13700
C420        C  0.81198667  0.14233141  0.75505468     0.25100
C421        C  0.82358879  0.16428324  0.73556161    -0.19100
C422        C  0.80291007  0.17978594  0.71659776    -0.07600
C423        C  0.77008966  0.17346341  0.71679128    -0.03600
C424        C  0.75878835  0.15175785  0.73714018    -0.09000
C425        C  0.77954051  0.13624918  0.75596309    -0.16600
H426        H  0.86956103  0.03130241  0.85256387     0.11500
H427        H  0.84063891  0.05586911  0.81168546     0.10800
H428        H  0.90038225  0.13662468  0.82232681     0.10800
H429        H  0.92962909  0.11218354  0.86313288     0.11300
H430        H  0.84866485  0.16946347  0.73502505     0.11400
H431        H  0.81319158  0.19665577  0.70232182     0.11300
H432        H  0.73373447  0.14666919  0.73829267     0.11500
H433        H  0.77025136  0.11950635  0.77123303     0.10300
C434        C  0.67722405  0.24620233  0.71157890    -0.03500
C435        C  0.68630479  0.26529954  0.73680747    -0.09300
C436        C  0.66570618  0.28773932  0.74901685    -0.16900
C437        C  0.63579906  0.29165390  0.73617417     0.25200
C438        C  0.62644979  0.27292637  0.71100386    -0.18600
C439        C  0.64707253  0.25030369  0.69873794    -0.07500
C440        C  0.61516570  0.31525579  0.74886679    -0.14000
C441        C  0.59942158  0.33568729  0.76059584    -0.13700
C442        C  0.58148927  0.36041614  0.77507090     0.25100
C443        C  0.54853151  0.36065458  0.77244449    -0.19100
C444        C  0.53104626  0.38475614  0.78627998    -0.07600
C445        C  0.54628680  0.40898349  0.80303307    -0.03600
C446        C  0.57948930  0.40848697  0.80562818    -0.09000
C447        C  0.59695577  0.38431965  0.79172141    -0.16600
H448        H  0.70960424  0.26344807  0.74679604     0.11500
H449        H  0.67325839  0.30226702  0.76835549     0.10800
H450        H  0.60330941  0.27582053  0.70087864     0.10800
H451        H  0.63927270  0.23587727  0.67946643     0.11300
H452        H  0.53634387  0.34229095  0.75957230     0.11400
H453        H  0.50560497  0.38463677  0.78348349     0.11300
H454        H  0.59192877  0.42648347  0.81869811     0.11500
H455        H  0.62250322  0.38425119  0.79398138     0.10300
C456        C  0.76351409  0.79661312  0.18032219    -0.03500
C457        C  0.76114327  0.79400008  0.14841118    -0.09300
C458        C  0.78194088  0.81017733  0.13031826    -0.16900
C459        C  0.80533982  0.82920152  0.14365887     0.25200
C460        C  0.80806092  0.83202260  0.17517241    -0.18600
C461        C  0.78731456  0.81593617  0.19333292    -0.07500
C462        C  0.82618425  0.84627293  0.12498883    -0.14000
C463        C  0.84324142  0.86084227  0.10914756    -0.13700
C464        C  0.86304649  0.87830505  0.08985056     0.25100
C465        C  0.85437628  0.90842752  0.08267467    -0.19100
C466        C  0.87306857  0.92507931  0.06306981    -0.07600
C467        C  0.90062259  0.91170770  0.05046944    -0.03600
C468        C  0.90947078  0.88165173  0.05823171    -0.09000
C469        C  0.89068774  0.86500299  0.07777592    -0.16600
H470        H  0.74330338  0.78003460  0.13691923     0.11500
H471        H  0.77960580  0.80801271  0.10586552     0.10800
H472        H  0.82608129  0.84679989  0.18572337     0.10800
H473        H  0.78972588  0.81864234  0.21773728     0.11300
H474        H  0.83300206  0.91889190  0.09195988     0.11400
H475        H  0.86575595  0.94822971  0.05747782     0.11300
H476        H  0.93054141  0.87079386  0.04877286     0.11500
H477        H  0.89753109  0.84166389  0.08321170     0.10300
C478        C  0.67358480  0.72003315  0.19893205    -0.03500
C479        C  0.65505709  0.72279911  0.17266215    -0.09300
C480        C  0.63378562  0.69934169  0.16352362    -0.16900
C481        C  0.63080366  0.67276847  0.18043174     0.25200
C482        C  0.64897474  0.66994938  0.20677233    -0.18600
C483        C  0.67016884  0.69348861  0.21603911    -0.07500
C484        C  0.60960833  0.64822114  0.17022951    -0.14000
C485        C  0.59214899  0.62808189  0.16019964    -0.13700
C486        C  0.57191017  0.60455550  0.14625931     0.25100
C487        C  0.57792174  0.57309939  0.15040210    -0.19100
C488        C  0.55982684  0.55027773  0.13491216    -0.07600
C489        C  0.53550239  0.55857755  0.11490296    -0.03600
C490        C  0.52899697  0.59029112  0.11167065    -0.09000
C491        C  0.54711341  0.61306958  0.12720505    -0.16600
H492        H  0.65701341  0.74311533  0.15919942     0.11500
H493        H  0.61985616  0.70181180  0.14311930     0.10800
H494        H  0.64702902  0.64941761  0.21994965     0.10800
H495        H  0.68451985  0.69049798  0.23607299     0.11300
H496        H  0.59697373  0.56619522  0.16515550     0.11400
H497        H  0.56510631  0.52613117  0.13836422     0.11300
H498        H  0.51072353  0.59755868  0.09629304     0.11500
H499        H  0.54227538  0.63734168  0.12375379     0.10300
C500        C  0.68174697  0.80808731  0.26295792    -0.03500
C501        C  0.66918992  0.83685520  0.25464034    -0.09300
C502        C  0.64877590  0.85371973  0.27410251    -0.16900
C503        C  0.64061905  0.84208776  0.30212292     0.25200
C504        C  0.65300982  0.81363696  0.31056635    -0.18600
C505        C  0.67333992  0.79678017  0.29119367    -0.07500
C506        C  0.61916117  0.85860159  0.32234928    -0.14000
C507        C  0.60122724  0.86879029  0.34152534    -0.13700
C508        C  0.58016591  0.87586828  0.36648480     0.25100
C509        C  0.57626639  0.85394481  0.38852334    -0.19100
C510        C  0.55463824  0.85918819  0.41194884    -0.07600
C511        C  0.53702303  0.88695714  0.41472118    -0.03600
C512        C  0.54032752  0.90833546  0.39155409    -0.09000
C513        C  0.56216075  0.90309860  0.36800902    -0.16600
H514        H  0.67454789  0.84611586  0.23284808     0.11500
H515        H  0.63918479  0.87562818  0.26719929     0.10800
H516        H  0.64685917  0.80437076  0.33220503     0.10800
H517        H  0.68256445  0.77506616  0.29861516     0.11300
H518        H  0.58911526  0.83228262  0.38700707     0.11400
H519        H  0.55049154  0.84042935  0.42697906     0.11300
H520        H  0.52484422  0.92793841  0.39009765     0.11500
H521        H  0.56404224  0.91971954  0.35037395     0.10300
C522        C  0.77602498  0.65675728  0.67105991    -0.03500
C523        C  0.80749748  0.64766263  0.67701847    -0.09300
C524        C  0.82518286  0.63039138  0.65538696    -0.16900
C525        C  0.81190979  0.62134038  0.62727243     0.25200
C526        C  0.78026250  0.62931048  0.62142187    -0.18600
C527        C  0.76249772  0.64682307  0.64306149    -0.07500
C528        C  0.83091528  0.60411138  0.60464036    -0.14000
C529        C  0.84685936  0.58951054  0.58600624    -0.13700
C530        C  0.86428001  0.57097136  0.56314309     0.25100
C531        C  0.87384609  0.58373614  0.53596016    -0.19100
C532        C  0.88573550  0.56450716  0.51207255    -0.07600
C533        C  0.88638202  0.53192259  0.51413677    -0.03600
C534        C  0.88246930  0.52044442  0.54333383    -0.09000
C535        C  0.87060463  0.53951755  0.56731692    -0.16600
H536        H  0.81875494  0.65403330  0.69844655     0.11500
H537        H  0.84942152  0.62428938  0.66057493     0.10800
H538        H  0.76942942  0.62243949  0.59989045     0.10800
H539        H  0.73858580  0.65345924  0.63736382     0.11300
H540        H  0.87099841  0.60834443  0.53273692     0.11400
H541        H  0.89290029  0.57509000  0.49144750     0.11300
H542        H  0.88733156  0.49640228  0.54743631     0.11500
H543        H  0.86527007  0.52940751  0.58873795     0.10300
C544        C  0.82547714  0.41160638  0.51280654    -0.03500
C545        C  0.83344838  0.38019523  0.50732821    -0.09300
C546        C  0.81834037  0.35707250  0.52308268    -0.16900
C547        C  0.79494256  0.36500336  0.54434808     0.25200
C548        C  0.78656573  0.39617086  0.54970969    -0.18600
C549        C  0.80182099  0.41938656  0.53408109    -0.07500
C550        C  0.78055570  0.34119958  0.56147807    -0.14000
C551        C  0.77031324  0.32072886  0.57636588    -0.13700
C552        C  0.76050080  0.29585228  0.59483436     0.25100
C553        C  0.73226073  0.29799629  0.61125474    -0.19100
C554        C  0.72386582  0.27448041  0.63055976    -0.07600
C555        C  0.74373564  0.24864442  0.63368827    -0.03600
C556        C  0.77166785  0.24638114  0.61651799    -0.09000
C557        C  0.78000052  0.26987150  0.59728522    -0.16600
H558        H  0.85189848  0.37362055  0.49138589     0.11500
H559        H  0.82518745  0.33303398  0.51894961     0.10800
H560        H  0.76850615  0.40253748  0.56616644     0.10800
H561        H  0.79507148  0.44337265  0.53847712     0.11300
H562        H  0.71707573  0.31810582  0.60960841     0.11400
H563        H  0.70246814  0.27710467  0.64381870     0.11300
H564        H  0.78720717  0.22654868  0.61809734     0.11500
H565        H  0.80189070  0.26797278  0.58464138     0.10300
C566        C  0.83199702  0.57068060  0.40209603    -0.03500
C567        C  0.80924152  0.56289570  0.37975007    -0.09300
C568        C  0.79686420  0.58570686  0.36149752    -0.16900
C569        C  0.80734463  0.61645635  0.36518786     0.25200
C570        C  0.82967979  0.62444742  0.38769730    -0.18600
C571        C  0.84181654  0.60171907  0.40617520    -0.07500
C572        C  0.79590782  0.63959325  0.34530398    -0.14000
C573        C  0.78672046  0.65870902  0.32816876    -0.13700
C574        C  0.77570676  0.68114745  0.30733933     0.25100
C575        C  0.75235054  0.70262000  0.31625342    -0.19100
C576        C  0.74104889  0.72390956  0.29578786    -0.07600
C577        C  0.75314672  0.72413468  0.26622991    -0.03600
C578        C  0.77684145  0.70266471  0.25753317    -0.09000
C579        C  0.78799028  0.68126229  0.27795101    -0.16600
H580        H  0.80121420  0.53914162  0.37638529     0.11500
H581        H  0.77951240  0.57928503  0.34421187     0.10800
H582        H  0.83805048  0.64813896  0.39066696     0.10800
H583        H  0.85962396  0.60813531  0.42299461     0.11300
H584        H  0.74274917  0.70281426  0.33898386     0.11400
H585        H  0.72315712  0.74034205  0.30320525     0.11300
H586        H  0.78629039  0.70199330  0.23473534     0.11500
H587        H  0.80598433  0.66467326  0.27075997     0.10300
C588        C  0.07192895  0.07253138  0.86149078    -0.03500
C589        C  0.05963354  0.10029976  0.85073064    -0.09300
C590        C  0.07793864  0.11869818  0.83229028    -0.16900
C591        C  0.10865941  0.10951272  0.82434425     0.25200
C592        C  0.12068387  0.08136956  0.83410790    -0.18600
C593        C  0.10237997  0.06289256  0.85250819    -0.07500
C594        C  0.12840493  0.12971185  0.80753798    -0.14000
C595        C  0.14563210  0.14706026  0.79468688    -0.13700
C596        C  0.16709598  0.16765082  0.78030414     0.25100
C597        C  0.19188589  0.15548614  0.76266998    -0.19100
C598        C  0.21329437  0.17529019  0.74914641    -0.07600
C599        C  0.21018685  0.20784249  0.75295500    -0.03600
C600        C  0.18520707  0.21968674  0.77113083    -0.09000
C601        C  0.16380990  0.19979269  0.78456988    -0.16600
H602        H  0.03618836  0.10819729  0.85718315     0.11500
H603        H  0.06841158  0.14042820  0.82482706     0.10800
H604        H  0.14445530  0.07407060  0.82808249     0.10800
H605        H  0.11241992  0.04158164  0.86043346     0.11300
H606        H  0.19481595  0.13059010  0.75950533     0.11400
H607        H  0.23214323  0.16452325  0.73618044     0.11300
H608        H  0.18222201  0.24451195  0.77481120     0.11500
H609        H  0.14480089  0.20949248  0.79838859     0.10300
C610        C  0.43396988  0.44549107  0.85700960    -0.03500
C611        C  0.41737100  0.44350600  0.82915829    -0.09300
C612        C  0.39556157  0.41999183  0.82264686    -0.16900
C613        C  0.39058313  0.39684867  0.84315668     0.25200
C614        C  0.40767962  0.39743650  0.87045358    -0.18600
C615        C  0.42950273  0.42139582  0.87719054    -0.07500
C616        C  0.36938660  0.37178899  0.83449859    -0.14000
C617        C  0.35178630  0.35271203  0.82277869    -0.13700
C618        C  0.33141299  0.33199942  0.80513959     0.25100
C619        C  0.30226358  0.32266154  0.81660484    -0.19100
C620        C  0.28208473  0.30361459  0.79875491    -0.07600
C621        C  0.29080616  0.29365352  0.76913353    -0.03600
C622        C  0.32017453  0.30316497  0.75788441    -0.09000
C623        C  0.34025781  0.32222683  0.77573231    -0.16600
H624        H  0.42223892  0.45949358  0.81155414     0.11500
H625        H  0.38334504  0.41928379  0.80098800     0.10800
H626        H  0.40490960  0.37891643  0.88602866     0.10800
H627        H  0.44399638  0.41966277  0.89715968     0.11300
H628        H  0.29500216  0.33031606  0.83920805     0.11400
H629        H  0.25949259  0.29707673  0.80801658     0.11300
H630        H  0.32799794  0.29546935  0.73549957     0.11500
H631        H  0.36271267  0.32939395  0.76655197     0.10300
C632        C  0.77704076  0.23375464  0.16788893    -0.03500
C633        C  0.77683858  0.22876257  0.13603091    -0.09300
C634        C  0.79591347  0.20588134  0.12199846    -0.16900
C635        C  0.81561987  0.18742945  0.13924808     0.25200
C636        C  0.81604398  0.19190885  0.17082047    -0.18600
C637        C  0.79697458  0.21479905  0.18496923    -0.07500
C638        C  0.83545580  0.16418742  0.12428252    -0.14000
C639        C  0.85153821  0.14541793  0.11019913    -0.13700
C640        C  0.87002747  0.12383643  0.09158686     0.25100
C641        C  0.85670400  0.09573346  0.08070502    -0.19100
C642        C  0.87373944  0.07584191  0.06083633    -0.07600
C643        C  0.90430826  0.08388896  0.05141359    -0.03600
C644        C  0.91786118  0.11174396  0.06310085    -0.09000
C645        C  0.90082219  0.13156377  0.08301481    -0.16600
H646        H  0.76227714  0.24209030  0.12139070     0.11500
H647        H  0.79531623  0.20263793  0.09753055     0.10800
H648        H  0.83114653  0.17778151  0.18451708     0.10800
H649        H  0.79775460  0.21777751  0.20943967     0.11300
H650        H  0.83289627  0.08947114  0.08709891     0.11400
H651        H  0.86268284  0.05454392  0.05228584     0.11300
H652        H  0.94140538  0.11851681  0.05639536     0.11500
H653        H  0.91144110  0.15321816  0.09123587     0.10300
C654        C  0.53550418  0.43970475  0.06020012    -0.03500
C655        C  0.53876125  0.43466588  0.09152391    -0.09300
C656        C  0.56352672  0.41726963  0.10288304    -0.16900
C657        C  0.58603552  0.40387936  0.08344108     0.25200
C658        C  0.58314680  0.40796286  0.05205599    -0.18600
C659        C  0.55807135  0.42580129  0.04048474    -0.07500
C660        C  0.61148333  0.38611939  0.09668488    -0.14000
C661        C  0.63047600  0.37183509  0.11144752    -0.13700
C662        C  0.65131945  0.35394955  0.13041101     0.25100
C663        C  0.65319698  0.32172133  0.12558076    -0.19100
C664        C  0.67350279  0.30419131  0.14321423    -0.07600
C665        C  0.69246540  0.31843642  0.16618044    -0.03600
C666        C  0.68967847  0.35064785  0.17184041    -0.09000
C667        C  0.66932732  0.36830915  0.15396302    -0.16600
H668        H  0.52204697  0.44480920  0.10763411     0.11500
H669        H  0.56513899  0.41438336  0.12709929     0.10800
H670        H  0.60028025  0.39750442  0.03655972     0.10800
H671        H  0.55660230  0.42847044  0.01642066     0.11300
H672        H  0.63920094  0.31010532  0.10788144     0.11400
H673        H  0.67475611  0.27934585  0.13857243     0.11300
H674        H  0.70404646  0.36224307  0.18924991     0.11500
H675        H  0.66795752  0.39319647  0.15825469     0.10300
C676        C  0.77510305  0.32566497  0.24252909    -0.03500
C677        C  0.80516234  0.33780909  0.23573305    -0.09300
C678        C  0.82239530  0.35560573  0.25744044    -0.16900
C679        C  0.81000397  0.36175682  0.28644384     0.25200
C680        C  0.77962753  0.35074637  0.29307351    -0.18600
C681        C  0.76229327  0.33297107  0.27129635    -0.07500
C682        C  0.82847649  0.37898602  0.30944639    -0.14000
C683        C  0.84242444  0.39362345  0.32951738    -0.13700
C684        C  0.85472848  0.41238045  0.35511771     0.25100
C685        C  0.83322561  0.42830692  0.37386591    -0.19100
C686        C  0.84379825  0.44656038  0.39865304    -0.07600
C687        C  0.87639398  0.44990253  0.40571723    -0.03600
C688        C  0.89810109  0.43362279  0.38682644    -0.09000
C689        C  0.88730277  0.41496749  0.36171109    -0.16600
H690        H  0.81565046  0.33315532  0.21366594     0.11500
H691        H  0.84563042  0.36414818  0.25171633     0.10800
H692        H  0.76954724  0.35539152  0.31532971     0.10800
H693        H  0.73947780  0.32392137  0.27744818     0.11300
H694        H  0.80803497  0.42662149  0.36936023     0.11400
H695        H  0.82613790  0.45838291  0.41261938     0.11300
H696        H  0.92313506  0.43499900  0.39117892     0.11500
H697        H  0.90434345  0.40261758  0.34746965     0.10300
C698        C  0.68201741  0.16068716  0.63939249    -0.03500
C699        C  0.67173804  0.17297099  0.61204963    -0.09300
C700        C  0.65351489  0.15500005  0.59138217    -0.16900
C701        C  0.64531269  0.12446365  0.59763425     0.25200
C702        C  0.65508325  0.11212362  0.62493668    -0.18600
C703        C  0.67325879  0.13008034  0.64568056    -0.07500
C704        C  0.62643069  0.10621180  0.57614310    -0.14000
C705        C  0.60946408  0.09330815  0.55744760    -0.13700
C706        C  0.58720727  0.08224105  0.53457139     0.25100
C707        C  0.55564254  0.07716979  0.54236977    -0.19100
C708        C  0.53264741  0.07297387  0.51969611    -0.07600
C709        C  0.54061191  0.07532931  0.48890806    -0.03600
C710        C  0.57299422  0.07570117  0.48137890    -0.09000
C711        C  0.59607852  0.07984906  0.50405124    -0.16600
H712        H  0.67843738  0.19615651  0.60614951     0.11500
H713        H  0.64602485  0.16486960  0.57036934     0.10800
H714        H  0.64867000  0.08864121  0.63020032     0.10800
H715        H  0.68030566  0.12000011  0.66669845     0.11300
H716        H  0.54851221  0.07804676  0.56592896     0.11400
H717        H  0.50822290  0.07007414  0.52632575     0.11300
H718        H  0.58067932  0.07335930  0.45811977     0.11500
H719        H  0.62063873  0.08244948  0.49769926     0.10300
C720        C  0.43553127  0.15204519  0.51839651    -0.03500
C721        C  0.44328939  0.14968274  0.54930691    -0.09300
C722        C  0.42514706  0.16476534  0.57183349    -0.16900
C723        C  0.39884955  0.18241402  0.56401454     0.25200
C724        C  0.39117245  0.18550699  0.53341556    -0.18600
C725        C  0.40941518  0.17053222  0.51074826    -0.07500
C726        C  0.37907973  0.19597623  0.58758366    -0.14000
C727        C  0.36255911  0.20548752  0.60819431    -0.13700
C728        C  0.34251967  0.21497659  0.63325205     0.25100
C729        C  0.32503704  0.24250452  0.63245807    -0.19100
C730        C  0.30444333  0.25085580  0.65616393    -0.07600
C731        C  0.30098117  0.23167944  0.68090519    -0.03600
C732        C  0.31909913  0.20437097  0.68180971    -0.09000
C733        C  0.33973739  0.19610870  0.65813358    -0.16600
H734        H  0.46270447  0.13531182  0.55635003     0.11500
H735        H  0.43122280  0.16204587  0.59543005     0.10800
H736        H  0.37082459  0.19911979  0.52707632     0.10800
H737        H  0.40287325  0.17325680  0.48731960     0.11300
H738        H  0.32688713  0.25722274  0.61327478     0.11400
H739        H  0.29042104  0.27173593  0.65455410     0.11300
H740        H  0.31715863  0.18932253  0.70072039     0.11500
H741        H  0.35320385  0.17477783  0.65903741     0.10300
C742        C  0.55458017  0.14401173  0.38111950    -0.03500
C743        C  0.58792016  0.14259876  0.38141439    -0.09300
C744        C  0.60598116  0.16214776  0.36373134    -0.16900
C745        C  0.59117871  0.18360497  0.34541744     0.25200
C746        C  0.55805458  0.18550861  0.34520916    -0.18600
C747        C  0.53989589  0.16592279  0.36287819    -0.07500
C748        C  0.61000059  0.20262594  0.32600158    -0.14000
C749        C  0.62652935  0.21667984  0.30886781    -0.13700
C750        C  0.64721439  0.23031876  0.28691522     0.25100
C751        C  0.65432998  0.21342477  0.26008212    -0.19100
C752        C  0.67572040  0.22510834  0.23937490    -0.07600
C753        C  0.69086028  0.25395040  0.24509585    -0.03600
C754        C  0.68261986  0.27145161  0.27155275    -0.09000
C755        C  0.66107890  0.25963914  0.29239557    -0.16600
H756        H  0.60007933  0.12575494  0.39471319     0.11500
H757        H  0.63154682  0.16016856  0.36400200     0.10800
H758        H  0.54621017  0.20193013  0.33113736     0.10800
H759        H  0.51441131  0.16803713  0.36221853     0.11300
H760        H  0.64361722  0.19090090  0.25528778     0.11400
H761        H  0.68040290  0.21132543  0.21882927     0.11300
H762        H  0.69342931  0.29378785  0.27664754     0.11500
H763        H  0.65568728  0.27312239  0.31299192     0.10300
C764        C  0.19364711  0.78334249  0.71084378    -0.03500
C765        C  0.19727636  0.81560441  0.71684294    -0.09300
C766        C  0.17747628  0.83164683  0.73737211    -0.16900
C767        C  0.15386656  0.81595063  0.75259985     0.25200
C768        C  0.15046204  0.78386413  0.74762993    -0.18600
C769        C  0.17034814  0.76767865  0.72717780    -0.07500
C770        C  0.13366622  0.83291571  0.77366525    -0.14000
C771        C  0.11776575  0.84817850  0.79137941    -0.13700
C772        C  0.10001239  0.86698727  0.81306328     0.25100
C773        C  0.07220089  0.85552207  0.82558917    -0.19100
C774        C  0.05589540  0.87319412  0.84780204    -0.07600
C775        C  0.06733522  0.90250878  0.85783026    -0.03600
C776        C  0.09484203  0.91418156  0.84458026    -0.09000
C777        C  0.11107470  0.89650763  0.82235712    -0.16600
H778        H  0.21560762  0.82884787  0.70653646     0.11500
H779        H  0.18074384  0.85640838  0.74150006     0.10800
H780        H  0.13251244  0.77134294  0.75958851     0.10800
H781        H  0.16737667  0.74280641  0.72388174     0.11300
H782        H  0.06338113  0.83273536  0.81852333     0.11400
H783        H  0.03471383  0.86366807  0.85753035     0.11300
H784        H  0.10411403  0.93675983  0.85173689     0.11500
H785        H  0.13252092  0.90566536  0.81276206     0.10300
C786        C  0.28093542  0.70447176  0.69792306    -0.03500
C787        C  0.28727660  0.67487835  0.68470328    -0.09300
C788        C  0.30807160  0.65449289  0.69892653    -0.16900
C789        C  0.32311923  0.66358070  0.72632939     0.25200
C790        C  0.31815458  0.69360114  0.73867469    -0.18600
C791        C  0.29736866  0.71382325  0.72464486    -0.07500
C792        C  0.34256430  0.64204236  0.74265866    -0.14000
C793        C  0.35823527  0.62485158  0.75779170    -0.13700
C794        C  0.37684460  0.60465277  0.77642990     0.25100
C795        C  0.40103933  0.61688236  0.79523340    -0.19100
C796        C  0.41965956  0.59725025  0.81255790    -0.07600
C797        C  0.41430044  0.56498868  0.81153659    -0.03600
C798        C  0.38952121  0.55299431  0.79301505    -0.09000
C799        C  0.37103401  0.57263255  0.77563482    -0.16600
H800        H  0.27524610  0.66702062  0.66412372     0.11500
H801        H  0.31180116  0.63140515  0.68893393     0.10800
H802        H  0.32981952  0.70119404  0.75960120     0.10800
H803        H  0.29378748  0.73674700  0.73504860     0.11300
H804        H  0.40571720  0.64160971  0.79632185     0.11400
H805        H  0.43822070  0.60730007  0.82678644     0.11300
H806        H  0.38492236  0.52828884  0.79129081     0.11500
H807        H  0.35242752  0.56275876  0.76128201     0.10300
C808        C  0.27800716  0.78062461  0.62822409    -0.03500
C809        C  0.29357076  0.80818490  0.63826153    -0.09300
C810        C  0.31335319  0.82416166  0.61892622    -0.16900
C811        C  0.31823023  0.81297235  0.58911198     0.25200
C812        C  0.30351960  0.78510652  0.57907034    -0.18600
C813        C  0.28362365  0.76898079  0.59851090    -0.07500
C814        C  0.33879186  0.82986371  0.56925394    -0.14000
C815        C  0.35716942  0.84307652  0.55310174    -0.13700
C816        C  0.38135536  0.85507905  0.53342509     0.25100
C817        C  0.40224174  0.83415264  0.51927965    -0.19100
C818        C  0.42619536  0.84459283  0.50069986    -0.07600
C819        C  0.43029228  0.87650595  0.49548674    -0.03600
C820        C  0.40904837  0.89761224  0.50970938    -0.09000
C821        C  0.38474950  0.88697446  0.52855251    -0.16600
H822        H  0.29039451  0.81754027  0.66120165     0.11500
H823        H  0.32477979  0.84537321  0.62725838     0.10800
H824        H  0.30721080  0.77596702  0.55612550     0.10800
H825        H  0.27194783  0.74798304  0.59005125     0.11300
H826        H  0.40015020  0.80940366  0.52274003     0.11400
H827        H  0.44194214  0.82749244  0.49031805     0.11300
H828        H  0.41108089  0.92223605  0.50673116     0.11500
H829        H  0.36877532  0.90357390  0.53942531     0.10300
C830        C  0.22130660  0.29883816  0.68543363    -0.03500
C831        C  0.23550384  0.32824199  0.68400123    -0.09300
C832        C  0.22487963  0.34935417  0.66299749    -0.16900
C833        C  0.19995558  0.34134437  0.64318451     0.25200
C834        C  0.18556204  0.31223332  0.64458607    -0.18600
C835        C  0.19615000  0.29110861  0.66550070    -0.07500
C836        C  0.18945628  0.36258618  0.62094320    -0.14000
C837        C  0.18017910  0.37925671  0.60153463    -0.13700
C838        C  0.16844915  0.39795438  0.57767446     0.25100
C839        C  0.15798267  0.42824263  0.58419828    -0.19100
C840        C  0.14562236  0.44599196  0.56116055    -0.07600
C841        C  0.14355010  0.43375797  0.53102730    -0.03600
C842        C  0.15477170  0.40333361  0.52476686    -0.09000
C843        C  0.16693372  0.38560854  0.54790702    -0.16600
H844        H  0.25463009  0.33507268  0.69923751     0.11500
H845        H  0.23618385  0.37184751  0.66213209     0.10800
H846        H  0.16637154  0.30570588  0.62925034     0.10800
H847        H  0.18509944  0.26846692  0.66551324     0.11300
H848        H  0.15908216  0.43807041  0.60717984     0.11400
H849        H  0.13742418  0.46910104  0.56735484     0.11300
H850        H  0.15439466  0.39305554  0.50202596     0.11500
H851        H  0.17509957  0.36219081  0.54255948     0.10300
C852        C  0.11844412  0.55321825  0.37085419    -0.03500
C853        C  0.11206740  0.54407410  0.34043773    -0.09300
C854        C  0.12676336  0.55900198  0.31677496    -0.16900
C855        C  0.14801742  0.58332564  0.32309747     0.25200
C856        C  0.15421932  0.59290030  0.35325600    -0.18600
C857        C  0.13951773  0.57799597  0.37698934    -0.07500
C858        C  0.16325439  0.59855510  0.29862937    -0.14000
C859        C  0.17554753  0.61177692  0.27818407    -0.13700
C860        C  0.18959930  0.62878263  0.25423823     0.25100
C861        C  0.22244497  0.63210574  0.25262651    -0.19100
C862        C  0.23591270  0.65042611  0.23066400    -0.07600
C863        C  0.21673020  0.66646618  0.21034185    -0.03600
C864        C  0.18373574  0.66140247  0.21117537    -0.09000
C865        C  0.17034732  0.64287679  0.23299595    -0.16600
H866        H  0.09574816  0.52531564  0.33493914     0.11500
H867        H  0.12163259  0.55147892  0.29354239     0.10800
H868        H  0.17064197  0.61170185  0.35843846     0.10800
H869        H  0.14534818  0.58527166  0.40009730     0.11300
H870        H  0.23768230  0.62094168  0.26868540     0.11400
H871        H  0.26127293  0.65232641  0.23040225     0.11300
H872        H  0.16797842  0.67190757  0.19522186     0.11500
H873        H  0.14488850  0.64003786  0.23363729     0.10300
C874        C  0.09214068  0.54510256  0.49591962    -0.03500
C875        C  0.07276137  0.55578490  0.52011137    -0.09300
C876        C  0.08357843  0.57948005  0.54080831    -0.16900
C877        C  0.11391083  0.59255560  0.53766616     0.25200
C878        C  0.13291445  0.58211516  0.51363125    -0.18600
C879        C  0.12236816  0.55875947  0.49332861    -0.07500
C880        C  0.12699391  0.61589502  0.55896357    -0.14000
C881        C  0.14194933  0.63502901  0.57414979    -0.13700
C882        C  0.16131876  0.65804423  0.59070168     0.25100
C883        C  0.19053710  0.64992232  0.60350374    -0.19100
C884        C  0.20859276  0.67211783  0.62034609    -0.07600
C885        C  0.19757604  0.70273154  0.62483322    -0.03600
C886        C  0.16893782  0.71093169  0.61071476    -0.09000
C887        C  0.15104188  0.68886159  0.59389459    -0.16600
H888        H  0.05009813  0.54512043  0.52394897     0.11500
H889        H  0.06862809  0.58705583  0.55957346     0.10800
H890        H  0.15646009  0.59154855  0.51093227     0.10800
H891        H  0.13864685  0.55040180  0.47594238     0.11300
H892        H  0.19908196  0.62627078  0.60098842     0.11400
H893        H  0.23036112  0.66498840  0.63094071     0.11300
H894        H  0.15996239  0.73442520  0.61324366     0.11500
H895        H  0.12886015  0.69576909  0.58380939     0.10300
C896        C  0.19721203  0.19584423  0.20377517    -0.03500
C897        C  0.21389337  0.17517068  0.18398960    -0.09300
C898        C  0.19812723  0.15735845  0.16137869    -0.16900
C899        C  0.16533328  0.15989093  0.15796811     0.25200
C900        C  0.14841104  0.18026383  0.17731296    -0.18600
C901        C  0.16406593  0.19806881  0.19998086    -0.07500
C902        C  0.14890455  0.14177779  0.13461372    -0.14000
C903        C  0.13422132  0.12709642  0.11535862    -0.13700
C904        C  0.11577360  0.11012220  0.09264824     0.25100
C905        C  0.08632068  0.12155507  0.08368727    -0.19100
C906        C  0.06832858  0.10524009  0.06161433    -0.07600
C907        C  0.07958826  0.07723405  0.04822353    -0.03600
C908        C  0.10910896  0.06577826  0.05748265    -0.09000
C909        C  0.12709186  0.08215702  0.07953124    -0.16600
H910        H  0.23933284  0.17293805  0.18601362     0.11500
H911        H  0.21155550  0.14170209  0.14650506     0.10800
H912        H  0.12300285  0.18249877  0.17481317     0.10800
H913        H  0.14970919  0.21352188  0.21390599     0.11300
H914        H  0.07728011  0.14313685  0.09372208     0.11400
H915        H  0.04568330  0.11458987  0.05497007     0.11300
H916        H  0.11840110  0.04426043  0.04755824     0.11500
H917        H  0.14982441  0.07304665  0.08630033     0.10300
C918        C  0.28408750  0.27446632  0.22187205    -0.03500
C919        C  0.29993463  0.26701396  0.19448998    -0.09300
C920        C  0.32144838  0.28769976  0.18237672    -0.16900
C921        C  0.32778884  0.31628157  0.19732757     0.25200
C922        C  0.31305396  0.32356980  0.22518886    -0.18600
C923        C  0.29150263  0.30269441  0.23748739    -0.07500
C924        C  0.34851482  0.33812230  0.18310139    -0.14000
C925        C  0.36510923  0.35488759  0.16855279    -0.13700
C926        C  0.38397704  0.37382988  0.14911106     0.25100
C927        C  0.37758375  0.40554678  0.14720441    -0.19100
C928        C  0.39482395  0.42360370  0.12738922    -0.07600
C929        C  0.41883037  0.41026798  0.10890341    -0.03600
C930        C  0.42527451  0.37837642  0.11122735    -0.09000
C931        C  0.40799541  0.36036707  0.13110833    -0.16600
H932        H  0.29556591  0.24516812  0.18218617     0.11500
H933        H  0.33278533  0.28155630  0.16098449     0.10800
H934        H  0.31777059  0.34557158  0.23712073     0.10800
H935        H  0.27995580  0.30912111  0.25863425     0.11300
H936        H  0.35908738  0.41634320  0.16092296     0.11400
H937        H  0.38938732  0.44805927  0.12682835     0.11300
H938        H  0.44323439  0.36716347  0.09721359     0.11500
H939        H  0.41312079  0.33581624  0.13214050     0.10300
C940        C  0.27643428  0.19553661  0.28973375    -0.03500
C941        C  0.30761262  0.20600252  0.29483262    -0.09300
C942        C  0.32906867  0.18844911  0.31158726    -0.16900
C943        C  0.31963196  0.16031102  0.32376740     0.25200
C944        C  0.28829019  0.15038710  0.31958050    -0.18600
C945        C  0.26696656  0.16773884  0.30274439    -0.07500
C946        C  0.34203733  0.14124686  0.33995099    -0.14000
C947        C  0.36083680  0.12526364  0.35325482    -0.13700
C948        C  0.38460240  0.10771361  0.36935536     0.25100
C949        C  0.37949919  0.09899992  0.39919706    -0.19100
C950        C  0.40438415  0.08665014  0.41618301    -0.07600
C951        C  0.43525582  0.08440155  0.40421746    -0.03600
C952        C  0.43856912  0.08835354  0.37282402    -0.09000
C953        C  0.41377703  0.10063335  0.35577940    -0.16600
H954        H  0.31574109  0.22708396  0.28488351     0.11500
H955        H  0.35318839  0.19656375  0.31457498     0.10800
H956        H  0.28041344  0.12889740  0.32892734     0.10800
H957        H  0.24303887  0.15916501  0.29957894     0.11300
H958        H  0.35672450  0.10302579  0.40982511     0.11400
H959        H  0.40005558  0.08123254  0.43951192     0.11300
H960        H  0.46057458  0.08291952  0.36144961     0.11500
H961        H  0.41779639  0.10563928  0.33226692     0.10300
C962        C  0.20038604  0.27603806  0.29233778    -0.03500
C963        C  0.21065339  0.30696484  0.29608596    -0.09300
C964        C  0.19309701  0.32861240  0.31387411    -0.16900
C965        C  0.16518369  0.31953651  0.32830101     0.25200
C966        C  0.15555415  0.28851330  0.32545347    -0.18600
C967        C  0.17291839  0.26701131  0.30764469    -0.07500
C968        C  0.14603523  0.34189680  0.34559780    -0.14000
C969        C  0.13076374  0.36108544  0.36017485    -0.13700
C970        C  0.11692478  0.38672132  0.37790546     0.25100
C971        C  0.08617121  0.38577408  0.39014704    -0.19100
C972        C  0.07443125  0.41102204  0.40835826    -0.07600
C973        C  0.09349272  0.43735178  0.41447418    -0.03600
C974        C  0.12427964  0.43747191  0.40194719    -0.09000
C975        C  0.13558362  0.41287722  0.38377296    -0.16600
H976        H  0.23134066  0.31470632  0.28421992     0.11500
H977        H  0.20092741  0.35254794  0.31585627     0.10800
H978        H  0.13422780  0.28102210  0.33653589     0.10800
H979        H  0.16446132  0.24331079  0.30526638     0.11300
H980        H  0.07152134  0.36540565  0.38605488     0.11400
H981        H  0.05122087  0.40938732  0.41830200     0.11300
H982        H  0.14022282  0.45672586  0.40689891     0.11500
H983        H  0.15939412  0.41402642  0.37483620     0.10300
loop_ 
_geom_bond_atom_site_label_1 
_geom_bond_atom_site_label_2 
_geom_bond_distance 
_geom_bond_site_symmetry_2 
_ccdc_geom_bond_type 
C1            C2   1.534       .  S
C1            C7   1.532       .  S
C1            C5   1.538       .  S
C1          C896   1.533       .  S
C2            H9   1.086       .  S
C2            C3   1.369       .  D
C3            C4   1.555       .  S
C3          C940   1.499       .  S
C4            C8   1.550       .  S
C4            C6   1.552       .  S
C4           H10   1.110       .  S
C5           H11   1.081       .  S
C5            C6   1.366       .  D
C6          C962   1.493       .  S
C7           H12   1.086       .  S
C7            C8   1.368       .  D
C8          C918   1.497       .  S
C13          C15   1.533       .  S
C13          C17   1.532       .  S
C13          C16   1.563       .  S
C13         C973   1.536       .  S
C14          C18   1.538       .  S
C14          C20   1.531       .  S
C14          C19   1.565       .  S
C14         C874   1.537       .  S
C15          C23   1.376       .  A
C15          C18   1.381       .  A
C16          C27   1.391       .  A
C16          C19   1.426       .  A
C17          C31   1.381       .  A
C17          C20   1.380       .  A
C18          C21   1.383       .  A
C19          C25   1.387       .  A
C20          C28   1.380       .  A
C21          N22   1.361       .  A
C21          H34   1.081       .  S
N22          C23   1.356       .  A
N22         C852   1.443       .  S
C23          H24   1.082       .  S
C25          N26   1.362       .  A
C25          H35   1.080       .  S
N26          C27   1.364       .  A
N26         N108   1.424   1_455  S
C27          H33   1.080       .  S
C28          N29   1.359       .  A
C28          H30   1.080       .  S
N29          C31   1.360       .  A
N29         C841   1.451       .  S
C31          H32   1.081       .  S
C36          C37   1.538       .  S
C36          C42   1.530       .  S
C36          C40   1.530       .  S
C36         C764   1.532       .  S
C37          H44   1.081       .  S
C37          C38   1.367       .  D
C38          C39   1.555       .  S
C38         C808   1.498       .  S
C39          C43   1.553       .  S
C39          C41   1.558       .  S
C39          H45   1.110       .  S
C40          H46   1.086       .  S
C40          C41   1.367       .  D
C41         C885   1.499       .  S
C42          H47   1.086       .  S
C42          C43   1.368       .  D
C43         C786   1.498       .  S
C48          C50   1.548       .  S
C48          C52   1.562       .  S
C48          C51   1.553       .  S
C48         C951   1.547       .  S
C49          C53   1.537       .  S
C49          C55   1.547       .  S
C49          C54   1.529       .  S
C49         C709   1.533       .  S
C50          C58   1.384       .  A
C50          C53   1.389       .  A
C51          C62   1.394       .  A
C51          C54   1.393       .  A
C52          C66   1.394       .  A
C52          C55   1.412       .  A
C53          C56   1.376       .  A
C54          C60   1.375       .  A
C55          C63   1.388       .  A
C56          N57   1.359       .  A
C56          H69   1.080       .  S
N57          C58   1.361       .  A
N57         C720   1.448       .  S
C58          H59   1.079       .  S
C60          N61   1.354       .  A
C60          H70   1.083       .  S
N61          C62   1.367       .  A
N61         N155   1.413   1_545  S
C62          H68   1.081       .  S
C63          N64   1.352       .  A
C63          H65   1.080       .  S
N64          C66   1.356       .  A
N64         C742   1.451       .  S
C66          H67   1.079       .  S
C71          C72   1.531       .  S
C71          C77   1.539       .  S
C71          C75   1.533       .  S
C71         C632   1.536       .  S
C72          H79   1.086       .  S
C72          C73   1.368       .  D
C73          C74   1.559       .  S
C73         C676   1.501       .  S
C74          C78   1.552       .  S
C74          C76   1.553       .  S
C74          H80   1.110       .  S
C75          H81   1.085       .  S
C75          C76   1.370       .  D
C76         C753   1.501       .  S
C77          H82   1.080       .  S
C77          C78   1.366       .  D
C78         C665   1.497       .  S
C83          C84   1.537       .  S
C83          C89   1.535       .  S
C83          C87   1.546       .  S
C83         C599   1.528       .  S
C84          H91   1.086       .  S
C84          C85   1.367       .  D
C85          C86   1.539       .  S
C85         C830   1.487       .  S
C86          C90   1.543       .  S
C86          C88   1.536       .  S
C86          H92   1.108       .  S
C87          H93   1.081       .  S
C87          C88   1.366       .  D
C88         C731   1.485       .  S
C89          H94   1.086       .  S
C89          C90   1.367       .  D
C90         C621   1.490       .  S
C95          C97   1.548       .  S
C95          C99   1.551       .  S
C95          C98   1.556       .  S
C95         C533   1.553       .  S
C96         C100   1.534       .  S
C96         C102   1.530       .  S
C96         C101   1.561       .  S
C96         C687   1.545       .  S
C97         C105   1.387       .  A
C97         C100   1.390       .  A
C98         C109   1.382       .  A
C98         C101   1.414       .  A
C99         C113   1.388       .  A
C99         C102   1.390       .  A
C100        C103   1.377       .  A
C101        C107   1.393       .  A
C102        C110   1.373       .  A
C103        N104   1.353       .  A
C103        H116   1.082       .  S
N104        C105   1.357       .  A
N104        C566   1.437       .  S
C105        H106   1.080       .  S
C107        N108   1.366       .  A
C107        H117   1.078       .  S
N108        C109   1.364       .  A
C109        H115   1.082       .  S
C110        N111   1.352       .  A
C110        H112   1.083       .  S
N111        C113   1.359       .  A
N111        C544   1.438       .  S
C113        H114   1.079       .  S
C118        C119   1.534       .  S
C118        C124   1.544       .  S
C118        C122   1.536       .  S
C118        C456   1.524       .  S
C119        H126   1.086       .  S
C119        C120   1.366       .  D
C120        C121   1.546       .  S
C120        C500   1.493       .  S
C121        C125   1.539       .  S
C121        C123   1.540       .  S
C121        H127   1.108       .  S
C122        H128   1.086       .  S
C122        C123   1.364       .  D
C123        C577   1.484       .  S
C124        H129   1.081       .  S
C124        C125   1.367       .  D
C125        C478   1.485       .  S
C130        C131   1.535       .  S
C130        C136   1.532       .  S
C130        C134   1.543       .  S
C130        C423   1.527       .  S
C131        H138   1.085       .  S
C131        C132   1.368       .  D
C132        C133   1.545       .  S
C132        C698   1.492       .  S
C133        C137   1.541       .  S
C133        C135   1.537       .  S
C133        H139   1.108       .  S
C134        H140   1.080       .  S
C134        C135   1.366       .  D
C135        C555   1.483       .  S
C136        H141   1.086       .  S
C136        C137   1.367       .  D
C137        C434   1.487       .  S
C142        C144   1.535       .  S
C142        C146   1.546       .  S
C142        C145   1.571       .  S
C142        C819   1.540       .  S
C143        C147   1.526       .  S
C143        C149   1.541       .  S
C143        C148   1.549       .  S
C143        C511   1.532       .  S
C144        C152   1.378       .  A
C144        C147   1.380       .  A
C145        C156   1.400       .  A
C145        C148   1.415       .  A
C146        C160   1.384       .  A
C146        C149   1.389       .  A
C147        C150   1.374       .  A
C148        C154   1.377       .  A
C149        C157   1.383       .  A
C150        N151   1.359       .  A
C150        H163   1.082       .  S
N151        C152   1.361       .  A
N151        C401   1.444       .  S
C152        H153   1.081       .  S
C154        N155   1.350       .  A
C154        H164   1.089       .  S
N155        C156   1.365       .  A
C156        H162   1.075       .  S
C157        N158   1.361       .  A
C157        H159   1.081       .  S
N158        C160   1.360       .  A
N158        C368   1.448       .  S
C160        H161   1.081       .  S
C165        C166   1.536       .  S
C165        C171   1.534       .  S
C165        C169   1.538       .  S
C165        C324   1.531       .  S
C166        H173   1.084       .  S
C166        C167   1.373       .  D
C167        C168   1.549       .  S
C167        C863   1.502       .  S
C168        C172   1.547       .  S
C168        C170   1.543       .  S
C168        H174   1.106       .  S
C169        H175   1.079       .  S
C169        C170   1.363       .  D
C170        C390   1.487       .  S
C171        H176   1.086       .  S
C171        C172   1.367       .  D
C172        C357   1.492       .  S
C177        C178   1.534       .  S
C177        C183   1.539       .  S
C177        C181   1.531       .  S
C177        C291   1.538       .  S
C178        H185   1.085       .  S
C178        C179   1.372       .  D
C179        C180   1.560       .  S
C179        C522   1.510       .  S
C180        C184   1.554       .  S
C180        C182   1.552       .  S
C180        H186   1.109       .  S
C181        H187   1.086       .  S
C181        C182   1.368       .  D
C182        C379   1.496       .  S
C183        H188   1.080       .  S
C183        C184   1.366       .  D
C184        C302   1.500       .  S
C189        C191   1.541       .  S
C189        C193   1.550       .  S
C189        C192   1.568       .  S
C189        C654   1.544       .  S
C190        C194   1.537       .  S
C190        C196   1.547       .  S
C190        C195   1.539       .  S
C190        C346   1.534       .  S
C191        C199   1.378       .  A
C191        C194   1.384       .  A
C192        C203   1.402   1_554  A
C192        C195   1.406       .  A
C193        C207   1.387       .  A
C193        C196   1.396       .  A
C194        C197   1.383       .  A
C195        C201   1.375   1_554  A
C196        C204   1.388       .  A
C197        N198   1.361       .  A
C197        H210   1.081       .  S
N198        C199   1.358       .  A
N198        C489   1.445       .  S
C199        H200   1.082       .  S
C201        N202   1.353       .  A
C201        H211   1.083       .  S
N202        C203   1.368       .  A
N202        N225   1.415       .  S
C203        H209   1.078       .  S
C204        N205   1.359       .  A
C204        H206   1.079       .  S
N205        C207   1.359       .  A
N205        C929   1.453       .  S
C207        H208   1.082       .  S
C212        C214   1.536       .  S
C212        C216   1.547       .  S
C212        C215   1.575       .  S
C212        C313   1.541       .  S
C213        C217   1.524       .  S
C213        C219   1.539       .  S
C213        C218   1.550       .  S
C213        C610   1.530       .  S
C214        C222   1.381       .  A
C214        C217   1.379       .  A
C215        C226   1.400       .  A
C215        C218   1.418       .  A
C216        C230   1.386       .  A
C216        C219   1.385       .  A
C217        C220   1.374       .  A
C218        C224   1.378       .  A
C219        C227   1.382       .  A
C220        N221   1.357       .  A
C220        H233   1.082       .  S
N221        C222   1.360       .  A
N221        C445   1.441       .  S
C222        H223   1.082       .  S
C224        N225   1.353       .  A
C224        H234   1.080       .  S
N225        C226   1.367       .  A
C226        H232   1.080       .  S
C227        N228   1.359       .  A
C227        H229   1.081       .  S
N228        C230   1.362       .  A
N228        C797   1.450       .  S
C230        H231   1.082       .  S
N235        N236   1.322   1_556  A
N235        N241   1.316       .  A
N235       Mn264   2.212   1_455  S
N236        C243   1.356       .  A
N237        N239   1.315       .  A
N237        N238   1.320       .  A
N237       Mn253   2.197   1_545  S
N238        C244   1.354       .  A
N239        N240   1.319       .  A
N239       Mn264   2.197   1_455  S
N240        C244   1.353       .  A
N241        N242   1.320   1_556  A
N241       Mn253   2.196   1_545  S
N242        C243   1.352       .  A
C243        C907   1.479       .  S
C244        C588   1.475       .  S
N245        N251   1.315       .  A
N245        N246   1.321       .  A
N245       Mn275   2.205   1_455  S
N246        C254   1.355       .  A
N247        N248   1.320   1_556  A
N247        N249   1.315       .  A
N247       Mn253   2.199       .  S
N248        C255   1.354       .  A
N249        N250   1.320   1_556  A
N249       Mn275   2.203   1_455  S
N250        C255   1.354       .  A
N251        N252   1.320       .  A
N251       Mn253   2.198       .  S
N252        C254   1.353       .  A
Mn253      Cl277   2.549   1_455  S
C254        C775   1.479       .  S
C255        C335   1.477       .  S
N256        N257   1.321       .  A
N256        N262   1.315       .  A
N256       Mn264   2.206       .  S
N257        C265   1.354       .  A
N258        N260   1.316       .  A
N258        N259   1.322   1_556  A
N258       Mn276   2.217   1_545  S
N259        C266   1.356       .  A
N260        N261   1.321   1_556  A
N260       Mn264   2.202       .  S
N261        C266   1.354       .  A
N262        N263   1.319       .  A
N262       Mn276   2.194   1_545  S
N263        C265   1.352       .  A
Mn264      Cl277   2.545   1_545  S
C265        C412   1.475       .  S
C266        C643   1.484       .  S
N267        N268   1.319   1_556  A
N267        N273   1.315       .  A
N267       Mn275   2.199       .  S
N268        C278   1.354       .  A
N269        N270   1.324       .  A
N269        N271   1.316       .  A
N269       Mn276   2.220       .  S
N270        C279   1.357       .  A
N271        N272   1.319       .  A
N271       Mn275   2.198       .  S
N272        C279   1.352       .  A
N273        N274   1.318   1_556  A
N273       Mn276   2.190       .  S
N274        C278   1.352       .  A
Mn275      Cl277   2.543       .  S
Mn276      Cl277   2.549       .  S
C278        C467   1.472       .  S
C279        C280   1.484       .  S
C280        C281   1.407       .  A
C280        C285   1.407       .  A
C281        C282   1.404       .  A
C281        H294   1.083       .  S
C282        C283   1.403       .  A
C282        H295   1.083       .  S
C283        C284   1.399       .  A
C283        C286   1.447       .  S
C284        C285   1.398       .  A
C284        H296   1.084       .  S
C285        H297   1.083       .  S
C286        C287   1.210       .  T
C287        C288   1.447       .  S
C288        C289   1.399       .  A
C288        C293   1.398       .  A
C289        C290   1.402       .  A
C289        H298   1.083       .  S
C290        C291   1.412       .  A
C290        H299   1.083       .  S
C291        C292   1.414       .  A
C292        C293   1.400       .  A
C292        H300   1.076       .  S
C293        H301   1.083       .  S
C302        C303   1.410       .  A
C302        C307   1.406       .  A
C303        C304   1.401       .  A
C303        H316   1.083       .  S
C304        C305   1.399       .  A
C304        H317   1.083       .  S
C305        C306   1.408       .  A
C305        C308   1.459       .  S
C306        C307   1.412       .  A
C306        H318   1.083       .  S
C307        H319   1.083       .  S
C308        C309   1.218       .  T
C309        C310   1.458       .  S
C310        C311   1.393       .  A
C310        C315   1.411       .  A
C311        C312   1.392       .  A
C311        H320   1.084       .  S
C312        C313   1.416       .  A
C312        H321   1.083       .  S
C313        C314   1.409       .  A
C314        C315   1.418       .  A
C314        H322   1.078       .  S
C315        H323   1.083       .  S
C324        C325   1.411       .  A
C324        C329   1.414       .  A
C325        C326   1.399       .  A
C325        H338   1.083       .  S
C326        C327   1.399       .  A
C326        H339   1.083       .  S
C327        C328   1.395       .  A
C327        C330   1.439       .  S
C328        C329   1.396       .  A
C328        H340   1.084       .  S
C329        H341   1.075       .  S
C330        C331   1.205       .  T
C331        C332   1.439       .  S
C332        C333   1.401       .  A
C332        C337   1.399       .  A
C333        C334   1.399       .  A
C333        H342   1.084       .  S
C334        C335   1.407       .  A
C334        H343   1.083       .  S
C335        C336   1.405       .  A
C336        C337   1.397       .  A
C336        H344   1.083       .  S
C337        H345   1.083       .  S
C346        C347   1.410       .  A
C346        C351   1.410       .  A
C347        C348   1.400       .  A
C347        H360   1.082       .  S
C348        C349   1.399       .  A
C348        H361   1.083       .  S
C349        C350   1.399       .  A
C349        C352   1.444       .  S
C350        C351   1.400       .  A
C350        H362   1.083       .  S
C351        H363   1.079       .  S
C352        C353   1.209       .  T
C353        C354   1.445       .  S
C354        C355   1.401       .  A
C354        C359   1.400       .  A
C355        C356   1.401       .  A
C355        H364   1.083       .  S
C356        C357   1.406       .  A
C356        H365   1.082       .  S
C357        C358   1.410       .  A
C358        C359   1.401       .  A
C358        H366   1.083       .  S
C359        H367   1.083       .  S
C368        C369   1.407       .  A
C368        C373   1.410       .  A
C369        C370   1.401       .  A
C369        H382   1.081       .  S
C370        C371   1.401       .  A
C370        H383   1.084       .  S
C371        C372   1.403       .  A
C371        C374   1.451       .  S
C372        C373   1.405       .  A
C372        H384   1.083       .  S
C373        H385   1.083       .  S
C374        C375   1.213       .  T
C375        C376   1.451       .  S
C376        C377   1.405       .  A
C376        C381   1.399       .  A
C377        C378   1.407       .  A
C377        H386   1.083       .  S
C378        C379   1.407       .  A
C378        H387   1.083       .  S
C379        C380   1.410       .  A
C380        C381   1.399       .  A
C380        H388   1.083       .  S
C381        H389   1.084       .  S
C390        C391   1.408       .  A
C390        C395   1.404       .  A
C391        C392   1.396       .  A
C391        H404   1.083       .  S
C392        C393   1.398       .  A
C392        H405   1.084       .  S
C393        C394   1.399       .  A
C393        C396   1.438       .  S
C394        C395   1.399       .  A
C394        H406   1.083       .  S
C395        H407   1.075       .  S
C396        C397   1.205       .  T
C397        C398   1.438       .  S
C398        C399   1.399       .  A
C398        C403   1.398       .  A
C399        C400   1.398       .  A
C399        H408   1.083       .  S
C400        C401   1.409       .  A
C400        H409   1.081       .  S
C401        C402   1.409       .  A
C402        C403   1.396       .  A
C402        H410   1.081       .  S
C403        H411   1.083       .  S
C412        C413   1.406       .  A
C412        C417   1.405       .  A
C413        C414   1.397       .  A
C413        H426   1.083       .  S
C414        C415   1.399       .  A
C414        H427   1.084       .  S
C415        C416   1.400       .  A
C415        C418   1.437       .  S
C416        C417   1.398       .  A
C416        H428   1.084       .  S
C417        H429   1.083       .  S
C418        C419   1.204       .  T
C419        C420   1.437       .  S
C420        C421   1.397       .  A
C420        C425   1.397       .  A
C421        C422   1.398       .  A
C421        H430   1.083       .  S
C422        C423   1.413       .  A
C422        H431   1.076       .  S
C423        C424   1.410       .  A
C424        C425   1.396       .  A
C424        H432   1.083       .  S
C425        H433   1.083       .  S
C434        C435   1.408       .  A
C434        C439   1.407       .  A
C435        C436   1.394       .  A
C435        H448   1.081       .  S
C436        C437   1.396       .  A
C436        H449   1.084       .  S
C437        C438   1.401       .  A
C437        C440   1.437       .  S
C438        C439   1.401       .  A
C438        H450   1.083       .  S
C439        H451   1.082       .  S
C440        C441   1.204       .  T
C441        C442   1.437       .  S
C442        C443   1.397       .  A
C442        C447   1.400       .  A
C443        C444   1.396       .  A
C443        H452   1.083       .  S
C444        C445   1.408       .  A
C444        H453   1.082       .  S
C445        C446   1.407       .  A
C446        C447   1.399       .  A
C446        H454   1.082       .  S
C447        H455   1.084       .  S
C456        C457   1.412       .  A
C456        C461   1.410       .  A
C457        C458   1.397       .  A
C457        H470   1.076       .  S
C458        C459   1.397       .  A
C458        H471   1.084       .  S
C459        C460   1.396       .  A
C459        C462   1.434       .  S
C460        C461   1.395       .  A
C460        H472   1.084       .  S
C461        H473   1.083       .  S
C462        C463   1.202       .  T
C463        C464   1.433       .  S
C464        C465   1.399       .  A
C464        C469   1.399       .  A
C465        C466   1.396       .  A
C465        H474   1.084       .  S
C466        C467   1.405       .  A
C466        H475   1.083       .  S
C467        C468   1.405       .  A
C468        C469   1.396       .  A
C468        H476   1.083       .  S
C469        H477   1.084       .  S
C478        C479   1.406       .  A
C478        C483   1.406       .  A
C479        C480   1.398       .  A
C479        H492   1.083       .  S
C480        C481   1.400       .  A
C480        H493   1.083       .  S
C481        C482   1.401       .  A
C481        C484   1.442       .  S
C482        C483   1.400       .  A
C482        H494   1.083       .  S
C483        H495   1.083       .  S
C484        C485   1.208       .  T
C485        C486   1.443       .  S
C486        C487   1.399       .  A
C486        C491   1.400       .  A
C487        C488   1.399       .  A
C487        H496   1.083       .  S
C488        C489   1.409       .  A
C488        H497   1.082       .  S
C489        C490   1.408       .  A
C490        C491   1.399       .  A
C490        H498   1.081       .  S
C491        H499   1.083       .  S
C500        C501   1.412       .  A
C500        C505   1.405       .  A
C501        C502   1.401       .  A
C501        H514   1.082       .  S
C502        C503   1.399       .  A
C502        H515   1.083       .  S
C503        C504   1.399       .  A
C503        C506   1.442       .  S
C504        C505   1.397       .  A
C504        H516   1.084       .  S
C505        H517   1.078       .  S
C506        C507   1.207       .  T
C507        C508   1.442       .  S
C508        C509   1.396       .  A
C508        C513   1.398       .  A
C509        C510   1.394       .  A
C509        H518   1.080       .  S
C510        C511   1.411       .  A
C510        H519   1.083       .  S
C511        C512   1.414       .  A
C512        C513   1.404       .  A
C512        H520   1.073       .  S
C513        H521   1.084       .  S
C522        C523   1.413       .  A
C522        C527   1.410       .  A
C523        C524   1.404       .  A
C523        H536   1.082       .  S
C524        C525   1.400       .  A
C524        H537   1.084       .  S
C525        C526   1.406       .  A
C525        C528   1.462       .  S
C526        C527   1.411       .  A
C526        H538   1.083       .  S
C527        H539   1.082       .  S
C528        C529   1.219       .  T
C529        C530   1.462       .  S
C530        C531   1.403       .  A
C530        C535   1.402       .  A
C531        C532   1.408       .  A
C531        H540   1.083       .  S
C532        C533   1.412       .  A
C532        H541   1.080       .  S
C533        C534   1.411       .  A
C534        C535   1.407       .  A
C534        H542   1.080       .  S
C535        H543   1.083       .  S
C544        C545   1.407       .  A
C544        C549   1.405       .  A
C545        C546   1.396       .  A
C545        H558   1.082       .  S
C546        C547   1.399       .  A
C546        H559   1.084       .  S
C547        C548   1.400       .  A
C547        C550   1.437       .  S
C548        C549   1.399       .  A
C548        H560   1.083       .  S
C549        H561   1.082       .  S
C550        C551   1.205       .  T
C551        C552   1.437       .  S
C552        C553   1.400       .  A
C552        C557   1.398       .  A
C553        C554   1.399       .  A
C553        H562   1.083       .  S
C554        C555   1.406       .  A
C554        H563   1.082       .  S
C555        C556   1.407       .  A
C556        C557   1.396       .  A
C556        H564   1.083       .  S
C557        H565   1.084       .  S
C566        C567   1.405       .  A
C566        C571   1.405       .  A
C567        C568   1.398       .  A
C567        H580   1.083       .  S
C568        C569   1.400       .  A
C568        H581   1.083       .  S
C569        C570   1.400       .  A
C569        C572   1.439       .  S
C570        C571   1.398       .  A
C570        H582   1.083       .  S
C571        H583   1.083       .  S
C572        C573   1.206       .  T
C573        C574   1.439       .  S
C574        C575   1.399       .  A
C574        C579   1.400       .  A
C575        C576   1.398       .  A
C575        H584   1.084       .  S
C576        C577   1.404       .  A
C576        H585   1.078       .  S
C577        C578   1.407       .  A
C578        C579   1.398       .  A
C578        H586   1.084       .  S
C579        H587   1.083       .  S
C588        C589   1.406       .  A
C588        C593   1.406       .  A
C589        C590   1.397       .  A
C589        H602   1.083       .  S
C590        C591   1.399       .  A
C590        H603   1.084       .  S
C591        C592   1.400       .  A
C591        C594   1.437       .  S
C592        C593   1.398       .  A
C592        H604   1.083       .  S
C593        H605   1.083       .  S
C594        C595   1.205       .  T
C595        C596   1.438       .  S
C596        C597   1.396       .  A
C596        C601   1.398       .  A
C597        C598   1.397       .  A
C597        H606   1.084       .  S
C598        C599   1.413       .  A
C598        H607   1.076       .  S
C599        C600   1.411       .  A
C600        C601   1.398       .  A
C600        H608   1.083       .  S
C601        H609   1.084       .  S
C610        C611   1.413       .  A
C610        C615   1.411       .  A
C611        C612   1.390       .  A
C611        H624   1.081       .  S
C612        C613   1.393       .  A
C612        H625   1.084       .  S
C613        C614   1.402       .  A
C613        C616   1.441       .  S
C614        C615   1.406       .  A
C614        H626   1.083       .  S
C615        H627   1.077       .  S
C616        C617   1.207       .  T
C617        C618   1.442       .  S
C618        C619   1.399       .  A
C618        C623   1.400       .  A
C619        C620   1.400       .  A
C619        H628   1.083       .  S
C620        C621   1.409       .  A
C620        H629   1.082       .  S
C621        C622   1.406       .  A
C622        C623   1.398       .  A
C622        H630   1.082       .  S
C623        H631   1.084       .  S
C632        C633   1.414       .  A
C632        C637   1.412       .  A
C633        C634   1.399       .  A
C633        H646   1.075       .  S
C634        C635   1.398       .  A
C634        H647   1.084       .  S
C635        C636   1.399       .  A
C635        C638   1.446       .  S
C636        C637   1.402       .  A
C636        H648   1.083       .  S
C637        H649   1.083       .  S
C638        C639   1.210       .  T
C639        C640   1.446       .  S
C640        C641   1.401       .  A
C640        C645   1.401       .  A
C641        C642   1.401       .  A
C641        H650   1.083       .  S
C642        C643   1.407       .  A
C642        H651   1.083       .  S
C643        C644   1.407       .  A
C644        C645   1.401       .  A
C644        H652   1.083       .  S
C645        H653   1.084       .  S
C654        C655   1.415       .  A
C654        C659   1.410       .  A
C655        C656   1.392       .  A
C655        H668   1.083       .  S
C656        C657   1.392       .  A
C656        H669   1.084       .  S
C657        C658   1.409       .  A
C657        C660   1.455       .  S
C658        C659   1.416       .  A
C658        H670   1.083       .  S
C659        H671   1.075       .  S
C660        C661   1.216       .  T
C661        C662   1.456       .  S
C662        C663   1.399       .  A
C662        C667   1.408       .  A
C663        C664   1.400       .  A
C663        H672   1.083       .  S
C664        C665   1.410       .  A
C664        H673   1.083       .  S
C665        C666   1.406       .  A
C666        C667   1.410       .  A
C666        H674   1.083       .  S
C667        H675   1.083       .  S
C676        C677   1.412       .  A
C676        C681   1.406       .  A
C677        C678   1.403       .  A
C677        H690   1.083       .  S
C678        C679   1.400       .  A
C678        H691   1.083       .  S
C679        C680   1.405       .  A
C679        C682   1.456       .  S
C680        C681   1.407       .  A
C680        H692   1.083       .  S
C681        H693   1.080       .  S
C682        C683   1.216       .  T
C683        C684   1.455       .  S
C684        C685   1.393       .  A
C684        C689   1.409       .  A
C685        C686   1.392       .  A
C685        H694   1.084       .  S
C686        C687   1.417       .  A
C686        H695   1.083       .  S
C687        C688   1.409       .  A
C688        C689   1.416       .  A
C688        H696   1.076       .  S
C689        H697   1.083       .  S
C698        C699   1.406       .  A
C698        C703   1.410       .  A
C699        C700   1.400       .  A
C699        H712   1.082       .  S
C700        C701   1.401       .  A
C700        H713   1.083       .  S
C701        C702   1.399       .  A
C701        C704   1.444       .  S
C702        C703   1.400       .  A
C702        H714   1.083       .  S
C703        H715   1.082       .  S
C704        C705   1.208       .  T
C705        C706   1.443       .  S
C706        C707   1.398       .  A
C706        C711   1.400       .  A
C707        C708   1.398       .  A
C707        H716   1.083       .  S
C708        C709   1.410       .  A
C708        H717   1.083       .  S
C709        C710   1.410       .  A
C710        C711   1.401       .  A
C710        H718   1.079       .  S
C711        H719   1.083       .  S
C720        C721   1.410       .  A
C720        C725   1.410       .  A
C721        C722   1.397       .  A
C721        H734   1.081       .  S
C722        C723   1.397       .  A
C722        H735   1.083       .  S
C723        C724   1.400       .  A
C723        C726   1.441       .  S
C724        C725   1.401       .  A
C724        H736   1.084       .  S
C725        H737   1.081       .  S
C726        C727   1.207       .  T
C727        C728   1.441       .  S
C728        C729   1.400       .  A
C728        C733   1.400       .  A
C729        C730   1.399       .  A
C729        H738   1.083       .  S
C730        C731   1.406       .  A
C730        H739   1.083       .  S
C731        C732   1.406       .  A
C732        C733   1.398       .  A
C732        H740   1.083       .  S
C733        H741   1.084       .  S
C742        C743   1.410       .  A
C742        C747   1.410       .  A
C743        C744   1.401       .  A
C743        H756   1.082       .  S
C744        C745   1.401       .  A
C744        H757   1.084       .  S
C745        C746   1.402       .  A
C745        C748   1.451       .  S
C746        C747   1.404       .  A
C746        H758   1.083       .  S
C747        H759   1.081       .  S
C748        C749   1.213       .  T
C749        C750   1.451       .  S
C750        C751   1.398       .  A
C750        C755   1.404       .  A
C751        C752   1.398       .  A
C751        H760   1.084       .  S
C752        C753   1.411       .  A
C752        H761   1.082       .  S
C753        C754   1.408       .  A
C754        C755   1.408       .  A
C754        H762   1.080       .  S
C755        H763   1.083       .  S
C764        C765   1.413       .  A
C764        C769   1.412       .  A
C765        C766   1.397       .  A
C765        H778   1.076       .  S
C766        C767   1.396       .  A
C766        H779   1.084       .  S
C767        C768   1.399       .  A
C767        C770   1.441       .  S
C768        C769   1.400       .  A
C768        H780   1.083       .  S
C769        H781   1.083       .  S
C770        C771   1.207       .  T
C771        C772   1.441       .  S
C772        C773   1.400       .  A
C772        C777   1.400       .  A
C773        C774   1.399       .  A
C773        H782   1.084       .  S
C774        C775   1.406       .  A
C774        H783   1.083       .  S
C775        C776   1.406       .  A
C776        C777   1.398       .  A
C776        H784   1.083       .  S
C777        H785   1.084       .  S
C786        C787   1.406       .  A
C786        C791   1.410       .  A
C787        C788   1.408       .  A
C787        H800   1.081       .  S
C788        C789   1.405       .  A
C788        H801   1.083       .  S
C789        C790   1.399       .  A
C789        C792   1.453       .  S
C790        C791   1.399       .  A
C790        H802   1.084       .  S
C791        H803   1.083       .  S
C792        C793   1.214       .  T
C793        C794   1.453       .  S
C794        C795   1.403       .  A
C794        C799   1.401       .  A
C795        C796   1.404       .  A
C795        H804   1.083       .  S
C796        C797   1.408       .  A
C796        H805   1.082       .  S
C797        C798   1.410       .  A
C798        C799   1.403       .  A
C798        H806   1.082       .  S
C799        H807   1.083       .  S
C808        C809   1.412       .  A
C808        C813   1.406       .  A
C809        C810   1.400       .  A
C809        H822   1.083       .  S
C810        C811   1.398       .  A
C810        H823   1.084       .  S
C811        C812   1.406       .  A
C811        C814   1.454       .  S
C812        C813   1.409       .  A
C812        H824   1.083       .  S
C813        H825   1.083       .  S
C814        C815   1.215       .  T
C815        C816   1.454       .  S
C816        C817   1.393       .  A
C816        C821   1.409       .  A
C817        C818   1.392       .  A
C817        H826   1.088       .  S
C818        C819   1.416       .  A
C818        H827   1.082       .  S
C819        C820   1.408       .  A
C820        C821   1.413       .  A
C820        H828   1.079       .  S
C821        H829   1.082       .  S
C830        C831   1.407       .  A
C830        C835   1.408       .  A
C831        C832   1.400       .  A
C831        H844   1.082       .  S
C832        C833   1.400       .  A
C832        H845   1.083       .  S
C833        C834   1.399       .  A
C833        C836   1.440       .  S
C834        C835   1.397       .  A
C834        H846   1.084       .  S
C835        H847   1.082       .  S
C836        C837   1.206       .  T
C837        C838   1.440       .  S
C838        C839   1.397       .  A
C838        C843   1.398       .  A
C839        C840   1.399       .  A
C839        H848   1.083       .  S
C840        C841   1.412       .  A
C840        H849   1.079       .  S
C841        C842   1.411       .  A
C842        C843   1.398       .  A
C842        H850   1.080       .  S
C843        H851   1.084       .  S
C852        C853   1.408       .  A
C852        C857   1.407       .  A
C853        C854   1.398       .  A
C853        H866   1.082       .  S
C854        C855   1.399       .  A
C854        H867   1.084       .  S
C855        C856   1.401       .  A
C855        C858   1.442       .  S
C856        C857   1.400       .  A
C856        H868   1.083       .  S
C857        H869   1.082       .  S
C858        C859   1.207       .  T
C859        C860   1.442       .  S
C860        C861   1.398       .  A
C860        C865   1.398       .  A
C861        C862   1.400       .  A
C861        H870   1.084       .  S
C862        C863   1.410       .  A
C862        H871   1.075       .  S
C863        C864   1.412       .  A
C864        C865   1.399       .  A
C864        H872   1.081       .  S
C865        H873   1.083       .  S
C874        C875   1.410       .  A
C874        C879   1.414       .  A
C875        C876   1.416       .  A
C875        H888   1.079       .  S
C876        C877   1.410       .  A
C876        H889   1.083       .  S
C877        C878   1.393       .  A
C877        C880   1.455       .  S
C878        C879   1.391       .  A
C878        H890   1.084       .  S
C879        H891   1.083       .  S
C880        C881   1.216       .  T
C881        C882   1.456       .  S
C882        C883   1.406       .  A
C882        C887   1.399       .  A
C883        C884   1.409       .  A
C883        H892   1.083       .  S
C884        C885   1.406       .  A
C884        H893   1.081       .  S
C885        C886   1.411       .  A
C886        C887   1.401       .  A
C886        H894   1.083       .  S
C887        H895   1.083       .  S
C896        C897   1.412       .  A
C896        C901   1.414       .  A
C897        C898   1.400       .  A
C897        H910   1.083       .  S
C898        C899   1.398       .  A
C898        H911   1.083       .  S
C899        C900   1.397       .  A
C899        C902   1.442       .  S
C900        C901   1.399       .  A
C900        H912   1.084       .  S
C901        H913   1.076       .  S
C902        C903   1.207       .  T
C903        C904   1.442       .  S
C904        C905   1.400       .  A
C904        C909   1.400       .  A
C905        C906   1.399       .  A
C905        H914   1.084       .  S
C906        C907   1.405       .  A
C906        H915   1.083       .  S
C907        C908   1.407       .  A
C908        C909   1.399       .  A
C908        H916   1.083       .  S
C909        H917   1.084       .  S
C918        C919   1.409       .  A
C918        C923   1.407       .  A
C919        C920   1.397       .  A
C919        H932   1.082       .  S
C920        C921   1.398       .  A
C920        H933   1.084       .  S
C921        C922   1.405       .  A
C921        C924   1.450       .  S
C922        C923   1.407       .  A
C922        H934   1.083       .  S
C923        H935   1.081       .  S
C924        C925   1.213       .  T
C925        C926   1.451       .  S
C926        C927   1.400       .  A
C926        C931   1.402       .  A
C927        C928   1.402       .  A
C927        H936   1.084       .  S
C928        C929   1.411       .  A
C928        H937   1.081       .  S
C929        C930   1.410       .  A
C930        C931   1.404       .  A
C930        H938   1.082       .  S
C931        H939   1.083       .  S
C940        C941   1.407       .  A
C940        C945   1.410       .  A
C941        C942   1.409       .  A
C941        H954   1.083       .  S
C942        C943   1.406       .  A
C942        H955   1.083       .  S
C943        C944   1.401       .  A
C943        C946   1.459       .  S
C944        C945   1.402       .  A
C944        H956   1.083       .  S
C945        H957   1.083       .  S
C946        C947   1.217       .  T
C947        C948   1.458       .  S
C948        C949   1.403       .  A
C948        C953   1.401       .  A
C949        C950   1.407       .  A
C949        H958   1.083       .  S
C950        C951   1.411       .  A
C950        H959   1.082       .  S
C951        C952   1.411       .  A
C952        C953   1.404       .  A
C952        H960   1.080       .  S
C953        H961   1.084       .  S
C962        C963   1.405       .  A
C962        C967   1.409       .  A
C963        C964   1.407       .  A
C963        H976   1.081       .  S
C964        C965   1.406       .  A
C964        H977   1.084       .  S
C965        C966   1.398       .  A
C965        C968   1.452       .  S
C966        C967   1.399       .  A
C966        H978   1.083       .  S
C967        H979   1.083       .  S
C968        C969   1.214       .  T
C969        C970   1.451       .  S
C970        C971   1.411       .  A
C970        C975   1.391       .  A
C971        C972   1.416       .  A
C971        H980   1.083       .  S
C972        C973   1.408       .  A
C972        H981   1.080       .  S
C973        C974   1.416       .  A
C974        C975   1.388       .  A
C974        H982   1.083       .  S
C975        H983   1.084       .  S
