geometry optimzed in LAMMPS
_audit_creation_date              2020-12-01 
_audit_creation_method            'lammps2cif' 
_symmetry_space_group_name_H-M    'P1' 
_symmetry_Int_Tables_number       1 
_symmetry_cell_setting            triclinic 
loop_ 
_symmetry_equiv_pos_as_xyz 
  x,y,z 
_cell_length_a                    52.67031705 
_cell_length_b                    52.68555936024087 
_cell_length_c                    30.171423275937613 
_cell_angle_alpha                 88.14279341967246 
_cell_angle_beta                  89.55095203643526 
_cell_angle_gamma                 119.93092398429486 
loop_ 
_atom_site_label 
_atom_site_type_symbol 
_atom_site_fract_x 
_atom_site_fract_y 
_atom_site_fract_z 
_atom_site_charge 
C1          C  0.25226980  0.39628811  0.10317705     0.78900
N2          N  0.24717389  0.39140698  0.14773873    -0.79400
C3          C  0.24531644  0.36710458  0.16798583     0.81400
N4          N  0.24762763  0.34737913  0.14312141    -0.79300
C5          C  0.25268804  0.35217979  0.09861988     0.81500
N6          N  0.25533710  0.37680765  0.07865899    -0.81000
C7          C  0.24495084  0.39933219  0.36160414     0.78900
N8          N  0.24169190  0.39967248  0.31705574    -0.79400
C9          C  0.24036489  0.37805539  0.29240402     0.81400
N10         N  0.24139495  0.35524712  0.31280781    -0.79300
C11         C  0.24454507  0.35442501  0.35740525     0.81500
N12         N  0.24681575  0.37681352  0.38191646    -0.81000
C13         C  0.11500874  0.39739604  0.36818284     0.78900
N14         N  0.12000217  0.39666663  0.32443288    -0.79400
C15         C  0.10077709  0.37465152  0.30003438     0.81400
N16         N  0.07618628  0.35215842  0.32020157    -0.79300
C17         C  0.07088916  0.35239769  0.36457685     0.81500
N18         N  0.09024046  0.37540652  0.38852799    -0.81000
C19         C  0.11426743  0.39382760  0.10951298     0.78900
N20         N  0.11397304  0.38900032  0.15438754    -0.79400
C21         C  0.09053245  0.36518295  0.17472667     0.81400
N22         N  0.06829794  0.34633749  0.15005083    -0.80200
C23         C  0.06845467  0.35105936  0.10580375     0.81500
N24         N  0.09122197  0.37495113  0.08542667    -0.81000
C25         C  0.07172722  0.22241300  0.10249792     0.78900
N26         N  0.07579039  0.22569089  0.14710862    -0.79400
C27         C  0.10032415  0.22759796  0.16527941     0.81400
N28         N  0.12066015  0.22699084  0.13869570    -0.79300
C29         C  0.11679524  0.22368365  0.09463487     0.81500
N30         N  0.09214604  0.22097622  0.07641226    -0.81000
C31         C  0.06745876  0.21808296  0.36278089     0.78900
N32         N  0.06750850  0.22274607  0.31851243    -0.79400
C33         C  0.08911270  0.22482125  0.29181844     0.81400
N34         N  0.11184216  0.22302722  0.31001881    -0.79300
C35         C  0.11210886  0.21833189  0.35480769     0.81500
N36         N  0.08957376  0.21547176  0.38116690    -0.81000
C37         C  0.36572440  0.11384902  0.30013478     0.78900
N38         N  0.34297206  0.08986307  0.32087361    -0.79400
C39         C  0.34268225  0.08553668  0.36564393     0.81400
N40         N  0.36524887  0.10526182  0.38975514    -0.79300
C41         C  0.38752222  0.12961363  0.36913214     0.81500
N42         N  0.38759125  0.13375425  0.32456106    -0.81000
C43         C  0.35307698  0.10080058  0.17570279     0.78900
N44         N  0.37707384  0.12350997  0.15500789    -0.79400
C45         C  0.38154644  0.12368942  0.11046440     0.81400
N46         N  0.36186986  0.10103603  0.08648190    -0.79300
C47         C  0.33750060  0.07874691  0.10705879     0.81500
N48         N  0.33328148  0.07883264  0.15141293    -0.81000
C49         C  0.35246566  0.25320897  0.16875048     0.78900
N50         N  0.37654792  0.25427168  0.14987441    -0.79400
C51         C  0.38117486  0.25820127  0.10509377     0.81400
N52         N  0.36172092  0.26114350  0.07912717    -0.79300
C53         C  0.33729549  0.25922631  0.09787737     0.81500
N54         N  0.33281167  0.25523918  0.14247612    -0.81000
C55         C  0.36481198  0.25424808  0.29433288     0.78900
N56         N  0.38645367  0.25607643  0.32021360    -0.79400
C57         C  0.38647707  0.26066968  0.36418023     0.81400
N58         N  0.36436406  0.26335224  0.38275430    -0.79300
C59         C  0.34200991  0.26074335  0.35718994     0.81500
N60         N  0.34231592  0.25620415  0.31305819    -0.81000
C61         C  0.21267040  0.10263421  0.29062749     0.78900
N62         N  0.21108848  0.08108623  0.31769909    -0.79400
C63         C  0.20757291  0.08127861  0.36196665     0.81400
N64         N  0.20580576  0.10357698  0.38005705    -0.79300
C65         C  0.20827093  0.12612360  0.35345308     0.81500
N66         N  0.21164105  0.12565381  0.30848433    -0.81000
C67         C  0.21110323  0.11199780  0.16388989     0.78900
N68         N  0.21004434  0.08802315  0.14584396    -0.79400
C69         C  0.20636526  0.08416441  0.10118429     0.81400
N70         N  0.20377659  0.10433718  0.07501175    -0.79300
C71         C  0.20554874  0.12837376  0.09332069     0.81500
N72         N  0.20923014  0.13190844  0.13727814    -0.81000
N73         N  0.23937795  0.28670109  0.38892608    -0.07400
N74         N  0.23247462  0.30214169  0.36123478    -0.59500
N75         N  0.29086065  0.27027751  0.42029734    -0.07100
N76         N  0.31800149  0.27551246  0.41463631    -0.61600
N77         N  0.27417986  0.25392066  0.38867198    -0.06700
N78         N  0.28973492  0.24807370  0.36054749    -0.59500
N79         N  0.25585972  0.30334349  0.42048350    -0.06400
N80         N  0.25999770  0.33019738  0.41535786    -0.62000
C81         C  0.24531205  0.32913318  0.37828550     0.94800
C82         C  0.31694235  0.26159863  0.37720536     0.94600
N83         N  0.27314018  0.25254981  0.05398994    -0.07600
N84         N  0.28616530  0.24523251  0.08466566    -0.60100
N85         N  0.25996413  0.30608561  0.02384416    -0.05700
N86         N  0.26700889  0.33309614  0.03367781    -0.61300
N87         N  0.24179829  0.28725169  0.05436566    -0.07600
N88         N  0.23638001  0.30072220  0.08577492    -0.60400
N89         N  0.29220713  0.27062537  0.02365406    -0.05300
N90         N  0.31884663  0.27566011  0.03284809    -0.61400
Mn91       Mn  0.27330488  0.28625865  0.47247735     1.18400
C92         C  0.31448931  0.25949047  0.07098752     0.96900
C93         C  0.25201064  0.32913675  0.07242946     0.97500
N94         N  0.21456995  0.19275034  0.38752392    -0.07600
N95         N  0.22121907  0.17875637  0.35799860    -0.63900
N96         N  0.16182285  0.20676058  0.41881341    -0.06400
N97         N  0.13471984  0.20121483  0.41252468    -0.64600
N98         N  0.17965934  0.22522668  0.38750442    -0.07100
N99         N  0.16492928  0.23212479  0.35887407    -0.64200
N100        N  0.19729690  0.17428272  0.41935260    -0.06000
N101        N  0.19225102  0.14754340  0.41241986    -0.64900
Mn102      Mn  0.22703716  0.23977755  0.38666448     1.10700
C103        C  0.20716832  0.15059697  0.37403967     0.98100
C104        C  0.13694779  0.21705376  0.37495592     0.98200
N105        N  0.18160293  0.22975220  0.05322249    -0.07100
N106        N  0.16789882  0.23685079  0.08251254    -0.62500
N107        N  0.19563671  0.17736035  0.02354164    -0.06500
N108        N  0.19046595  0.15022363  0.03083498    -0.59200
N109        N  0.21324651  0.19464281  0.05337672    -0.07800
N110        N  0.22020012  0.17991255  0.08184104    -0.62100
N111        N  0.16351108  0.21333273  0.02304118    -0.06800
N112        N  0.13688654  0.20908259  0.03105642    -0.59300
Mn113      Mn  0.22730678  0.24091371  0.05453964     1.20200
Mn114      Mn  0.17774953  0.18829317  0.47181621     1.10100
Cl115      Cl  0.22547157  0.23733228  0.47164367    -0.87200
C116        C  0.14023303  0.22410275  0.06820149     0.95100
C117        C  0.20615694  0.15243404  0.06731552     0.94900
N118        N  0.01014904  0.28755286  0.06668406    -0.07400
N119        N  0.03043043  0.30048289  0.09606868    -0.59500
N120        N  0.44254046  0.26965756  0.04134384    -0.07100
N121        N  0.42060287  0.27471921  0.04703977    -0.61600
N122        N  0.44214255  0.25173420  0.07317090    -0.06700
N123        N  0.42018753  0.24465572  0.10160472    -0.59500
N124        N  0.01175806  0.30657436  0.03581881    -0.06400
N125        N  0.03364076  0.33307771  0.04341462    -0.62000
C126        C  0.04493391  0.32863893  0.08108046     0.94800
C127        C  0.40696115  0.25907316  0.08474423     0.94600
N128        N  0.44430725  0.25351393  0.40710466    -0.07600
N129        N  0.42423709  0.24711718  0.37713168    -0.60100
N130        N  0.00952929  0.30181778  0.43172469    -0.05700
N131        N  0.03153150  0.32892260  0.42438001    -0.61300
N132        N  0.00949496  0.28472739  0.40086656    -0.07600
N133        N  0.03112366  0.29991092  0.37154433    -0.60400
N134        N  0.44272891  0.27032118  0.43700646    -0.05300
N135        N  0.42100204  0.27542230  0.42808807    -0.61400
Mn136      Mn  0.47578332  0.28714931  0.48988626     1.18400
C137        C  0.40973338  0.26065349  0.39059299     0.96900
C138        C  0.04477167  0.32740881  0.38663959     0.97500
N139        N  0.44224636  0.19147560  0.07515289    -0.07600
N140        N  0.42043727  0.17613892  0.10400546    -0.63900
N141        N  0.51055841  0.20852433  0.04486733    -0.06400
N142        N  0.03426841  0.20732394  0.04386620    -0.64600
N143        N  0.50954564  0.22498852  0.07594512    -0.07100
N144        N  0.03134664  0.23421276  0.09748591    -0.64200
N145        N  0.44261363  0.17456497  0.04426068    -0.06000
N146        N  0.42069561  0.14742312  0.05107288    -0.64900
Mn147      Mn  0.47572144  0.23829617  0.07577871     1.10700
C148        C  0.40714085  0.14879238  0.08847587     0.98100
C149        C  0.04579320  0.22098608  0.08193555     0.98200
N150        N  0.51112786  0.22799434  0.41031563    -0.07100
N151        N  0.03045497  0.23243865  0.37404911    -0.62500
N152        N  0.44325602  0.17559386  0.44021016    -0.06500
N153        N  0.42189349  0.14883775  0.43230211    -0.59200
N154        N  0.44471491  0.19438816  0.40910466    -0.07800
N155        N  0.42486289  0.18096684  0.37914651    -0.62100
N156        N  0.51099276  0.20958385  0.44094391    -0.06800
N157        N  0.03067926  0.20128816  0.42615370    -0.59300
Mn158      Mn  0.47786162  0.24082949  0.40754955     1.20200
Mn159      Mn  0.47593334  0.19032509  0.49280642     1.10100
Cl160      Cl  0.47589766  0.23875411  0.49166136    -0.87200
C161        C  0.04407011  0.21807822  0.38900896     0.95100
C162        C  0.41070712  0.15274223  0.39408567     0.94900
N163        N  0.24308082  0.45499860  0.06723103    -0.07400
N164        N  0.23722043  0.43373866  0.09686996    -0.59500
N165        N  0.29084824  0.02287075  0.03674512    -0.07100
N166        N  0.31774993  0.04411768  0.04461199    -0.61600
N167        N  0.27232593  0.02168812  0.06739563    -0.06700
N168        N  0.28606028  0.04157938  0.09690389    -0.59500
N169        N  0.26107152  0.45594127  0.03579362    -0.06400
N170        N  0.26745637  0.43493159  0.04309406    -0.62000
C171        C  0.25247416  0.42144598  0.08130517     0.94800
C172        C  0.31420970  0.05549550  0.08227724     0.94600
N173        N  0.27517524  0.02487310  0.40161994    -0.07600
N174        N  0.29020974  0.04666314  0.37229824    -0.60100
N175        N  0.25513134  0.45657865  0.43114333    -0.05700
N176        N  0.25997596  0.43462162  0.42381392    -0.61300
N177        N  0.23822782  0.45806600  0.40055660    -0.07600
N178        N  0.23160744  0.43765375  0.37153598    -0.60400
N179        N  0.29242292  0.02459556  0.43270044    -0.05300
N180        N  0.31948147  0.04649330  0.42562651    -0.61400
Mn181      Mn  0.27205269  0.48932365  0.48357788     1.18400
C182        C  0.31771650  0.05999467  0.38784244     0.96900
C183        C  0.24502358  0.42301449  0.38646724     0.97500
N184        N  0.21317966  0.02376671  0.06781099    -0.07600
N185        N  0.21907406  0.04420337  0.09685512    -0.63900
N186        N  0.16436640  0.45273479  0.03869808    -0.06400
N187        N  0.13724438  0.43148209  0.04766791    -0.64600
N188        N  0.18194658  0.45295662  0.06962165    -0.07100
N189        N  0.16712338  0.43220952  0.10060453    -0.64200
N190        N  0.19688916  0.02536539  0.03610052    -0.06000
N191        N  0.19180076  0.04715847  0.04263210    -0.64900
Mn192      Mn  0.22840908  0.48716824  0.06874830     1.10700
C193        C  0.20565894  0.05867162  0.08067877     0.98100
C194        C  0.13930909  0.41894735  0.08636078     0.98200
N195        N  0.17892697  0.45830275  0.40242780    -0.07100
N196        N  0.16565485  0.43663053  0.37553953    -0.62500
N197        N  0.19605129  0.02200733  0.43256697    -0.06500
N198        N  0.19096736  0.04396691  0.42505557    -0.59200
N199        N  0.21480319  0.02292114  0.40271349    -0.07800
N200        N  0.22265504  0.04497321  0.37408324    -0.62100
N201        N  0.16039504  0.45721494  0.43296806    -0.06800
N202        N  0.13396995  0.43434586  0.42763974    -0.59300
Mn203      Mn  0.22529968  0.49177895  0.39939211     1.20200
Mn204      Mn  0.17566311  0.49042026  0.48409737     1.10100
Cl205      Cl  0.22384173  0.48979282  0.48401801    -0.87200
C206        C  0.13782829  0.42179189  0.39166292     0.95100
C207        C  0.20796889  0.05803732  0.38852374     0.94900
C208        C  0.21323873  0.11730166  0.21187722    -0.17700
C209        C  0.21407322  0.09898430  0.24244858    -0.32900
H210        H  0.21283485  0.13662827  0.22243771     0.11300
H211        H  0.21428419  0.07954760  0.23196002     0.11900
C212        C  0.34782837  0.25155016  0.21740411    -0.17700
C213        C  0.36718596  0.25157725  0.24603560    -0.32900
H214        H  0.32865738  0.25201067  0.22986248     0.11300
H215        H  0.38642291  0.25125522  0.23354637     0.11900
C216        C  0.34855102  0.09860052  0.22437377    -0.17700
C217        C  0.36811542  0.11821020  0.25134421    -0.32900
H218        H  0.32926123  0.07931455  0.23845800     0.11300
H219        H  0.38749647  0.13740560  0.23726939     0.11900
C220        C  0.08601369  0.22760795  0.24352553    -0.17700
C221        C  0.10527397  0.22868505  0.21350677    -0.32900
H222        H  0.06631967  0.22735736  0.23238799     0.11300
H223        H  0.12493708  0.22887633  0.22465577     0.11900
C224        C  0.10671074  0.37737584  0.25166995    -0.17700
C225        C  0.08718474  0.35954511  0.22328877    -0.32900
H226        H  0.12694503  0.39619502  0.23888794     0.11300
H227        H  0.06681513  0.34091680  0.23610992     0.11900
C228        C  0.23971115  0.38083423  0.24359980    -0.17700
C229        C  0.24174334  0.36208828  0.21665972    -0.32900
H230        H  0.23936227  0.39989571  0.22951299     0.11300
H231        H  0.24222101  0.34309283  0.23073750     0.11900
C232        C  0.24183093  0.39128132  0.59866878     0.78900
N233        N  0.23979044  0.38797252  0.64362363    -0.79400
C234        C  0.23966816  0.36462802  0.66430352     0.81400
N235        N  0.24069002  0.34409746  0.63965523    -0.79300
C236        C  0.24282979  0.34710921  0.59471079     0.81500
N237        N  0.24391588  0.37105653  0.57408962    -0.81000
C238        C  0.25432212  0.40470102  0.85643404     0.78900
N239        N  0.24910292  0.40427294  0.81235750    -0.79400
C240        C  0.24620240  0.38189725  0.78793280     0.81400
N241        N  0.24767983  0.35931863  0.80821976    -0.79300
C242        C  0.25284488  0.35956797  0.85229321     0.81500
N243        N  0.25647202  0.38243659  0.87640590    -0.81000
C244        C  0.12000417  0.40078506  0.86312326     0.78900
N245        N  0.12347111  0.40035599  0.81866523    -0.79400
C246        C  0.10216824  0.37929728  0.79486402     0.81400
N247        N  0.07741196  0.35800631  0.81618600    -0.79300
C248        C  0.07375094  0.35846314  0.86085153     0.81500
N249        N  0.09496420  0.38011117  0.88422677    -0.81000
C250        C  0.10874008  0.39249555  0.60437810     0.78900
N251        N  0.10929956  0.38891124  0.64922048    -0.79400
C252        C  0.08797783  0.36435692  0.67100752     0.81400
N253        N  0.06665473  0.34307666  0.64757916    -0.80200
C254        C  0.06582510  0.34629235  0.60298631     0.81500
N255        N  0.08665822  0.37125439  0.58122715    -0.81000
C256        C  0.06707970  0.21351333  0.60153799     0.78900
N257        N  0.07224199  0.21867737  0.64560884    -0.79400
C258        C  0.09692274  0.22081993  0.66347010     0.81400
N259        N  0.11633228  0.21857742  0.63709054    -0.79300
C260        C  0.11161176  0.21364729  0.59351167     0.81500
N261        N  0.08680685  0.21078710  0.57548703    -0.81000
C262        C  0.07233924  0.22719082  0.85996616     0.78900
N263        N  0.07108034  0.22935562  0.81544014    -0.79400
C264        C  0.09163225  0.22926066  0.78870138     0.81400
N265        N  0.11465302  0.22801722  0.80701790    -0.79300
C266        C  0.11619311  0.22606215  0.85209532     0.81500
N267        N  0.09460383  0.22504929  0.87847405    -0.81000
C268        C  0.36640171  0.11510149  0.80023565     0.78900
N269        N  0.34377142  0.09144046  0.82157114    -0.79400
C270        C  0.34380395  0.08739449  0.86627623     0.81400
N271        N  0.36661305  0.10718437  0.88994901    -0.79300
C272        C  0.38888474  0.13132839  0.86878763     0.81500
N273        N  0.38862968  0.13513925  0.82411242    -0.81000
C274        C  0.35169828  0.10029949  0.67651399     0.78900
N275        N  0.37564117  0.12269311  0.65538111    -0.79400
C276        C  0.37987064  0.12253406  0.61093434     0.81400
N277        N  0.36000992  0.09981512  0.58732482    -0.79300
C278        C  0.33560463  0.07776970  0.60819659     0.81500
N279        N  0.33158704  0.07816249  0.65263310    -0.81000
C280        C  0.35087136  0.25083419  0.66917686     0.78900
N281        N  0.37487233  0.25210393  0.64977683    -0.79400
C282        C  0.37913287  0.25593903  0.60499335     0.81400
N283        N  0.35934716  0.25861589  0.57940668    -0.79300
C284        C  0.33494053  0.25651301  0.59868751     0.81500
N285        N  0.33084588  0.25257415  0.64338150    -0.81000
C286        C  0.36539961  0.25375952  0.79404182     0.78900
N287        N  0.38752570  0.25630849  0.81949894    -0.79400
C288        C  0.38802218  0.26160957  0.86329654     0.81400
N289        N  0.36598552  0.26432206  0.88201287    -0.79300
C290        C  0.34323495  0.26103633  0.85686204     0.81500
N291        N  0.34302560  0.25578136  0.81299389    -0.81000
C292        C  0.21354939  0.11410114  0.79010457     0.78900
N293        N  0.21162620  0.08993473  0.81171873    -0.79400
C294        C  0.20815131  0.08672767  0.85700735     0.81400
N295        N  0.20655508  0.10769060  0.88013126    -0.79300
C296        C  0.20941504  0.13196875  0.85823010     0.81500
N297        N  0.21290516  0.13492158  0.81377651    -0.81000
C298        C  0.21064178  0.10092186  0.66525704     0.78900
N299        N  0.20942831  0.07912169  0.64190357    -0.79400
C300        C  0.20525656  0.07811940  0.59792621     0.81400
N301        N  0.20215252  0.09934545  0.57614979    -0.79300
C302        C  0.20409410  0.12213332  0.59888336     0.81500
N303        N  0.20838927  0.12294212  0.64371464    -0.81000
N304        N  0.24427524  0.29153187  0.88730624    -0.07400
N305        N  0.23861910  0.30716120  0.85825681    -0.59500
N306        N  0.29375111  0.27310835  0.91936918    -0.07100
N307        N  0.32046322  0.27720868  0.91383323    -0.61600
N308        N  0.27656908  0.25678075  0.88819142    -0.06700
N309        N  0.29139309  0.24982289  0.86035660    -0.59500
N310        N  0.26120196  0.30820116  0.91848318    -0.06400
N311        N  0.26705506  0.33549908  0.91158900    -0.62000
C312        C  0.25288466  0.33441859  0.87391423     0.94800
C313        C  0.31864471  0.26263089  0.87689148     0.94600
N314        N  0.27005104  0.24899212  0.55598562    -0.07600
N315        N  0.28349381  0.24191394  0.58629966    -0.60100
N316        N  0.25401976  0.30085008  0.52437878    -0.05700
N317        N  0.25891847  0.32754921  0.53200860    -0.61300
N318        N  0.23606292  0.28193579  0.55501021    -0.07600
N319        N  0.22878502  0.29530600  0.58448935    -0.60400
N320        N  0.28879431  0.26727905  0.52545880    -0.05300
N321        N  0.31564102  0.27273899  0.53427684    -0.61400
Mn322      Mn  0.27768085  0.29048964  0.97107701     1.18400
C323        C  0.31176647  0.25659747  0.57232344     0.96900
C324        C  0.24288659  0.32362951  0.56960382     0.97500
N325        N  0.21586343  0.19785001  0.89004060    -0.07600
N326        N  0.22384692  0.18367729  0.86343385    -0.63900
N327        N  0.16482356  0.21475075  0.91847981    -0.06400
N328        N  0.13800671  0.20968641  0.91142880    -0.64600
N329        N  0.18302388  0.23221179  0.88668565    -0.07100
N330        N  0.16877512  0.23894640  0.85688472    -0.64200
N331        N  0.19754632  0.17981907  0.92118496    -0.06000
N332        N  0.19296131  0.15299023  0.91686836    -0.64900
Mn333      Mn  0.22993885  0.24466587  0.88642633     1.10700
C334        C  0.20966774  0.15594511  0.88080678     0.98100
C335        C  0.14075044  0.22477670  0.87287961     0.98200
N336        N  0.17751830  0.22192907  0.55330711    -0.07100
N337        N  0.16296448  0.22843524  0.58182694    -0.62500
N338        N  0.19493918  0.17133580  0.52609206    -0.06500
N339        N  0.18948049  0.14428278  0.53563402    -0.59200
N340        N  0.21118885  0.18891243  0.55694329    -0.07800
N341        N  0.21671873  0.17429500  0.58815178    -0.62100
N342        N  0.16001978  0.20465738  0.52325648    -0.06800
N343        N  0.13287593  0.19922893  0.53069086    -0.59300
Mn344      Mn  0.22366790  0.23540229  0.55605438     1.20200
Mn345      Mn  0.17929862  0.19543011  0.97154642     1.10100
Cl346      Cl  0.22853584  0.24300805  0.97077662    -0.87200
C347        C  0.13535667  0.21443303  0.56735741     0.95100
C348        C  0.20317527  0.14651772  0.57454916     0.94900
N349        N  0.00710532  0.28048213  0.56741493    -0.07400
N350        N  0.02803824  0.29430667  0.59586016    -0.59500
N351        N  0.44082755  0.26792485  0.54163940    -0.07100
N352        N  0.41873178  0.27278696  0.54705807    -0.61600
N353        N  0.44037603  0.24995077  0.57342478    -0.06700
N354        N  0.41824895  0.24265107  0.60157303    -0.59500
N355        N  0.00810434  0.29895455  0.53605410    -0.06400
N356        N  0.03003810  0.32568873  0.54219569    -0.62000
C357        C  0.04226729  0.32233763  0.57953724     0.94800
C358        C  0.40493525  0.25693586  0.58454173     0.94600
N359        N  0.44621603  0.25531735  0.90657153    -0.07600
N360        N  0.42624686  0.24879217  0.87641455    -0.60100
N361        N  0.01351628  0.30971658  0.93043942    -0.05700
N362        N  0.03546686  0.33670566  0.92210509    -0.61300
N363        N  0.01302913  0.29235549  0.89969845    -0.07600
N364        N  0.03407724  0.30697803  0.86959562    -0.60400
N365        N  0.44446355  0.27207822  0.93637744    -0.05300
N366        N  0.42268395  0.27704421  0.92714603    -0.61400
Mn367      Mn  0.47746179  0.28891953  0.98951903     1.18400
C368        C  0.41161820  0.26223733  0.88957875     0.96900
C369        C  0.04790932  0.33450775  0.88392473     0.97500
N370        N  0.44065356  0.18993001  0.57554107    -0.07600
N371        N  0.41884904  0.17472468  0.60438118    -0.63900
N372        N  0.50877404  0.20687701  0.54506706    -0.06400
N373        N  0.02840166  0.19784152  0.54438301    -0.64600
N374        N  0.50796340  0.22347608  0.57608652    -0.07100
N375        N  0.02715480  0.22592837  0.59745912    -0.64200
N376        N  0.44090081  0.17297248  0.54467445    -0.06000
N377        N  0.41889669  0.14588967  0.55145542    -0.64900
Mn378      Mn  0.47397838  0.23659662  0.57620209     1.10700
C379        C  0.40543108  0.14740803  0.58882426     0.98100
C380        C  0.04095510  0.21213620  0.58162175     0.98200
N381        N  0.51292155  0.23005671  0.90985674    -0.07100
N382        N  0.03540178  0.24163710  0.87165884    -0.62500
N383        N  0.44512799  0.17735616  0.93945190    -0.06500
N384        N  0.42370967  0.15061264  0.93154339    -0.59200
N385        N  0.44654597  0.19618477  0.90841553    -0.07800
N386        N  0.42659674  0.18276922  0.87852495    -0.62100
N387        N  0.51300289  0.21162732  0.94024295    -0.06800
N388        N  0.03686300  0.21134030  0.92414846    -0.59300
Mn389      Mn  0.47973343  0.24276611  0.90721929     1.20200
Mn390      Mn  0.47780725  0.19207549  0.99227126     1.10100
Cl391      Cl  0.47761587  0.24047096  0.99126388    -0.87200
C392        C  0.04954720  0.22779728  0.88654491     0.95100
C393        C  0.41243457  0.15451167  0.89339460     0.94900
N394        N  0.23514101  0.45275756  0.56650917    -0.07400
N395        N  0.22788886  0.43015445  0.59440493    -0.59500
N396        N  0.29011845  0.02153771  0.53738398    -0.07100
N397        N  0.31667655  0.04330447  0.54554976    -0.61600
N398        N  0.27120216  0.01950920  0.56803152    -0.06700
N399        N  0.28437745  0.03935010  0.59789547    -0.59500
N400        N  0.25301540  0.45360181  0.53498051    -0.06400
N401        N  0.25777227  0.43131609  0.54022560    -0.62000
C402        C  0.24196941  0.41688743  0.57737074     0.94800
C403        C  0.31258583  0.05412103  0.58343300     0.94600
N404        N  0.27608985  0.02696507  0.90097506    -0.07600
N405        N  0.29140457  0.04908559  0.87239574    -0.60100
N406        N  0.26273510  0.45907917  0.92999452    -0.05700
N407        N  0.26887581  0.43831092  0.92040623    -0.61300
N408        N  0.24561889  0.46067115  0.89986599    -0.07600
N409        N  0.24004343  0.44163508  0.86908293    -0.60400
N410        N  0.29299583  0.02608645  0.93216472    -0.05300
N411        N  0.32015963  0.04798620  0.92586276    -0.61400
Mn412      Mn  0.27898932  0.49125720  0.98341013     1.18400
C413        C  0.31873583  0.06204585  0.88845156     0.96900
C414        C  0.25448243  0.42778569  0.88222513     0.97500
N415        N  0.21120461  0.01837514  0.56597953    -0.07600
N416        N  0.21861769  0.04003797  0.59267310    -0.63900
N417        N  0.15815603  0.45471890  0.53713074    -0.06400
N418        N  0.13110732  0.43249016  0.54418643    -0.64600
N419        N  0.17547251  0.45400330  0.56776321    -0.07100
N420        N  0.16065821  0.43189448  0.59658647    -0.64200
N421        N  0.19410656  0.01904719  0.53502746    -0.06000
N422        N  0.18975608  0.04144878  0.53956201    -0.64900
Mn423      Mn  0.22212433  0.48686834  0.56882569     1.10700
C424        C  0.20529528  0.05423775  0.57561813     0.98100
C425        C  0.13310321  0.41855535  0.58151626     0.98200
N426        N  0.18507154  0.45799972  0.90225258    -0.07100
N427        N  0.17160855  0.43833380  0.87228733    -0.62500
N428        N  0.19848780  0.02780950  0.92964594    -0.06500
N429        N  0.19252599  0.04900752  0.92013840    -0.59200
N430        N  0.21630501  0.02769207  0.89886731    -0.07800
N431        N  0.22231449  0.04824055  0.86761997    -0.62100
N432        N  0.16641619  0.45560293  0.93362285    -0.06800
N433        N  0.13982524  0.43400045  0.92592958    -0.59300
Mn434      Mn  0.23116740  0.49263704  0.90069148     1.20200
Mn435      Mn  0.18034642  0.48766342  0.98546629     1.10100
Cl436      Cl  0.22967520  0.48946351  0.98461382    -0.87200
C437        C  0.14358154  0.42350640  0.88765169     0.95100
C438        C  0.20748450  0.06148693  0.88127009     0.94900
C439        C  0.21309693  0.09850760  0.71375360    -0.17700
C440        C  0.21475492  0.11839466  0.74133271    -0.32900
H441        H  0.21240122  0.07878974  0.72732071     0.11300
H442        H  0.21548576  0.13813800  0.72781259     0.11900
C443        C  0.34692137  0.24947701  0.71790747    -0.17700
C444        C  0.36707498  0.25044204  0.74582765    -0.32900
H445        H  0.32768265  0.24955760  0.73097424     0.11300
H446        H  0.38638986  0.25051309  0.73275156     0.11900
C447        C  0.34788241  0.09876553  0.72528928    -0.17700
C448        C  0.36806037  0.11875531  0.75135110    -0.32900
H449        H  0.32870965  0.07975008  0.74018459     0.11300
H450        H  0.38732297  0.13767400  0.73645048     0.11900
C451        C  0.08683387  0.22865331  0.74048247    -0.17700
C452        C  0.10347421  0.22477727  0.71107591    -0.32900
H453        H  0.06786360  0.22978260  0.72920430     0.11300
H454        H  0.12242318  0.22361522  0.72238296     0.11900
C455        C  0.10592117  0.38109757  0.74605098    -0.17700
C456        C  0.08629388  0.36083174  0.71992266    -0.32900
H457        H  0.12490515  0.40034275  0.73119718     0.11300
H458        H  0.06747191  0.34145763  0.73483591     0.11900
C459        C  0.24215741  0.38290153  0.73962165    -0.17700
C460        C  0.24015516  0.36197443  0.71314965    -0.32900
H461        H  0.24208173  0.40205148  0.72531081     0.11300
H462        H  0.24044945  0.34293513  0.72745327     0.11900
C463        C  0.24357090  0.89228914  0.09944145     0.78900
N464        N  0.24052212  0.88843067  0.14431454    -0.79400
C465        C  0.23989228  0.86480177  0.16489744     0.81400
N466        N  0.24147756  0.84458643  0.14019370    -0.79300
C467        C  0.24465768  0.84814432  0.09533834     0.81500
N468        N  0.24617970  0.87234056  0.07486788    -0.81000
C469        C  0.25127478  0.90259987  0.35797009     0.78900
N470        N  0.24657574  0.90258155  0.31376604    -0.79400
C471        C  0.24412778  0.88052744  0.28901091     0.81400
N472        N  0.24554912  0.85785974  0.30908968    -0.79300
C473        C  0.25021190  0.85774773  0.35330487     0.81500
N474        N  0.25338570  0.88029401  0.37775974    -0.81000
C475        C  0.11781298  0.89619070  0.36604203     0.78900
N476        N  0.12187758  0.89625888  0.32181034    -0.79400
C477        C  0.10148178  0.87525618  0.29713017     0.81400
N478        N  0.07674082  0.85299255  0.31743694    -0.79300
C479        C  0.07239579  0.85250808  0.36225637     0.81500
N480        N  0.09284223  0.87455941  0.38645336    -0.81000
C481        C  0.11135607  0.89730497  0.10671872     0.78900
N482        N  0.11132638  0.89245946  0.15155022    -0.79400
C483        C  0.08864605  0.86802167  0.17188598     0.81400
N484        N  0.06693958  0.84848085  0.14721226    -0.80200
C485        C  0.06691085  0.85302085  0.10295000     0.81500
N486        N  0.08889342  0.87759375  0.08250957    -0.81000
C487        C  0.07219363  0.72241855  0.10157722     0.78900
N488        N  0.07713836  0.72742595  0.14563610    -0.79400
C489        C  0.10118693  0.72850575  0.16406386     0.81400
N490        N  0.12019894  0.72518503  0.13817800    -0.79300
C491        C  0.11545109  0.71999167  0.09457947     0.81500
N492        N  0.09126731  0.71832276  0.07610401    -0.81000
C493        C  0.06833241  0.72094535  0.36094662     0.78900
N494        N  0.06838845  0.72563586  0.31661137    -0.79400
C495        C  0.09055913  0.72872100  0.29008877     0.81400
N496        N  0.11374924  0.72795846  0.30850017    -0.79300
C497        C  0.11401629  0.72342368  0.35325995     0.81500
N498        N  0.09100326  0.71949407  0.37941985    -0.81000
C499        C  0.36289980  0.61486582  0.29927841     0.78900
N500        N  0.33994653  0.59072988  0.31952820    -0.79400
C501        C  0.33943431  0.58603351  0.36433165     0.81400
N502        N  0.36196361  0.60544600  0.38881252    -0.79300
C503        C  0.38439121  0.62984024  0.36861089     0.81500
N504        N  0.38465135  0.63439314  0.32416034    -0.81000
C505        C  0.35282146  0.60271564  0.17420115     0.78900
N506        N  0.37706617  0.62552349  0.15394979    -0.79400
C507        C  0.38205616  0.62567681  0.10946147     0.81400
N508        N  0.36270320  0.60291923  0.08530789    -0.79300
C509        C  0.33819560  0.58059715  0.10549889     0.81500
N510        N  0.33346980  0.58071387  0.14961996    -0.81000
C511        C  0.35248406  0.75285070  0.16807862     0.78900
N512        N  0.37697285  0.75485619  0.14903918    -0.79400
C513        C  0.38139577  0.75876991  0.10419724     0.81400
N514        N  0.36132668  0.76072292  0.07838630    -0.79300
C515        C  0.33655116  0.75786827  0.09736876     0.81500
N516        N  0.33228555  0.75391672  0.14196518    -0.81000
C517        C  0.36481958  0.75432913  0.29360355     0.78900
N518        N  0.38632245  0.75598576  0.31956970    -0.79400
C519        C  0.38617649  0.76036397  0.36355105     0.81400
N520        N  0.36411988  0.76307112  0.38208770    -0.79300
C521        C  0.34191801  0.76068703  0.35646176     0.81500
N522        N  0.34229904  0.75630895  0.31225683    -0.81000
C523        C  0.21100582  0.61242275  0.28911233     0.78900
N524        N  0.20860926  0.58797801  0.31060080    -0.79400
C525        C  0.20487330  0.58464046  0.35592646     0.81400
N526        N  0.20384359  0.60586493  0.37907292    -0.79300
C527        C  0.20730662  0.63039673  0.35727493     0.81500
N528        N  0.21066679  0.63333956  0.31286600    -0.81000
C529        C  0.21483920  0.60338162  0.16384063     0.78900
N530        N  0.21458090  0.58209429  0.14036205    -0.79400
C531        C  0.20980170  0.58067423  0.09655915     0.81400
N532        N  0.20543749  0.60117451  0.07493340    -0.79300
C533        C  0.20669906  0.62365385  0.09774693     0.81500
N534        N  0.21128422  0.62466307  0.14249905    -0.81000
N535        N  0.24234480  0.78997936  0.38771776    -0.07400
N536        N  0.23651898  0.80552301  0.35877364    -0.59500
N537        N  0.29214867  0.77203477  0.41970747    -0.07100
N538        N  0.31895682  0.77642198  0.41388502    -0.61600
N539        N  0.27506412  0.75580765  0.38834085    -0.06700
N540        N  0.29001746  0.74924170  0.36014167    -0.59500
N541        N  0.25913165  0.80665973  0.41900274    -0.06400
N542        N  0.26468218  0.83386226  0.41233612    -0.62000
C543        C  0.25050337  0.83271176  0.37465937     0.94800
C544        C  0.31727268  0.76216832  0.37657644     0.94600
N545        N  0.27147664  0.74954239  0.05498364    -0.07600
N546        N  0.28504864  0.74251812  0.08509121    -0.60100
N547        N  0.25587477  0.80197194  0.02445751    -0.05700
N548        N  0.26085052  0.82869845  0.03226241    -0.61300
N549        N  0.23812243  0.78309780  0.05529661    -0.07600
N550        N  0.23100383  0.79646882  0.08498366    -0.60400
N551        N  0.29008953  0.76788695  0.02442336    -0.05300
N552        N  0.31699197  0.77347735  0.03294745    -0.61400
Mn553      Mn  0.27574214  0.78920794  0.47162397     1.18400
C554        C  0.31325569  0.75731244  0.07086230     0.96900
C555        C  0.24503587  0.82479314  0.07015522     0.97500
N556        N  0.21474530  0.69649080  0.38981247    -0.07600
N557        N  0.22238607  0.68227489  0.36272211    -0.63900
N558        N  0.16323910  0.71243305  0.41839484    -0.06400
N559        N  0.13631927  0.70714153  0.41176407    -0.64600
N560        N  0.18131317  0.73029761  0.38682541    -0.07100
N561        N  0.16685005  0.73711107  0.35753634    -0.64200
N562        N  0.19660541  0.67841542  0.42105134    -0.06000
N563        N  0.19174427  0.65155603  0.41638355    -0.64900
Mn564      Mn  0.22838820  0.74324519  0.38650796     1.10700
C565        C  0.20812996  0.65450128  0.38001756     0.98100
C566        C  0.13884972  0.72256657  0.37372152     0.98200
N567        N  0.17949366  0.72374924  0.05458392    -0.07100
N568        N  0.16588520  0.73137503  0.08312600    -0.62500
N569        N  0.19560647  0.67231764  0.02636909    -0.06500
N570        N  0.19051709  0.64532268  0.03551786    -0.59200
N571        N  0.21238262  0.68996472  0.05675204    -0.07800
N572        N  0.21859011  0.67549858  0.08726050    -0.62100
N573        N  0.16149021  0.70693913  0.02459826    -0.06800
N574        N  0.13488571  0.70304865  0.03214717    -0.59300
Mn575      Mn  0.22532688  0.73647869  0.05608424     1.20200
Mn576      Mn  0.17806416  0.69346131  0.47118815     1.10100
Cl577      Cl  0.22685465  0.74149460  0.47083570    -0.87200
C578        C  0.13828051  0.71860620  0.06884562     0.95100
C579        C  0.20494462  0.64771391  0.07378150     0.94900
N580        N  0.00992647  0.78800605  0.06521411    -0.07400
N581        N  0.03027413  0.80175748  0.09420907    -0.59500
N582        N  0.44289260  0.77129604  0.03957707    -0.07100
N583        N  0.42073570  0.77599548  0.04566142    -0.61600
N584        N  0.44292639  0.75358451  0.07139355    -0.06700
N585        N  0.42110270  0.74630103  0.10015883    -0.59500
N586        N  0.01078833  0.80644767  0.03393781    -0.06400
N587        N  0.03220967  0.83331821  0.04077708    -0.62000
C588        C  0.04404396  0.82977685  0.07844696     0.94800
C589        C  0.40746873  0.76036462  0.08359046     0.94600
N590        N  0.44354763  0.75267453  0.40601513    -0.07600
N591        N  0.42338016  0.74631414  0.37630844    -0.60100
N592        N  0.01078313  0.80295274  0.43005912    -0.05700
N593        N  0.03318831  0.82982056  0.42248234    -0.61300
N594        N  0.01013177  0.78561814  0.39913261    -0.07600
N595        N  0.03172239  0.80037993  0.36956622    -0.60400
N596        N  0.44227389  0.76961621  0.43593215    -0.05300
N597        N  0.42063745  0.77488661  0.42730668    -0.61400
Mn598      Mn  0.47557386  0.78622921  0.48820114     1.18400
C599        C  0.40914941  0.76003847  0.38996017     0.96900
C600        C  0.04600618  0.82789934  0.38452908     0.97500
N601        N  0.44293389  0.69338230  0.07338048    -0.07600
N602        N  0.42136314  0.67815010  0.10270145    -0.63900
N603        N  0.51092070  0.71019529  0.04167533    -0.06400
N604        N  0.03413138  0.70712266  0.04417396    -0.64600
N605        N  0.51025295  0.72683236  0.07275627    -0.07100
N606        N  0.03234928  0.73511519  0.09699962    -0.64200
N607        N  0.44296316  0.67638170  0.04235056    -0.06000
N608        N  0.42106981  0.64926148  0.04964968    -0.64900
Mn609      Mn  0.47651555  0.74023976  0.07329041     1.10700
C610        C  0.40786711  0.65072328  0.08744059     0.98100
C611        C  0.04645249  0.72152696  0.08130277     0.98200
N612        N  0.50956431  0.72644356  0.40713904    -0.07100
N613        N  0.03030636  0.73371321  0.37265675    -0.62500
N614        N  0.44165341  0.67452788  0.43833145    -0.06500
N615        N  0.41954399  0.64805382  0.43096345    -0.59200
N616        N  0.44311433  0.69356071  0.40768053    -0.07800
N617        N  0.42251675  0.68064722  0.37863446    -0.62100
N618        N  0.50971084  0.70803332  0.43751357    -0.06800
N619        N  0.03163269  0.70326799  0.42493890    -0.59300
Mn620      Mn  0.47667214  0.73967870  0.40557855     1.20200
Mn621      Mn  0.47473737  0.68885161  0.49030826     1.10100
Cl622      Cl  0.47516877  0.73757450  0.48965352    -0.87200
C623        C  0.04446499  0.71991508  0.38734544     0.95100
C624        C  0.40790777  0.65246743  0.39360253     0.94900
N625        N  0.23818292  0.95452814  0.06702279    -0.07400
N626        N  0.23055702  0.93188509  0.09502521    -0.59500
N627        N  0.29328873  0.52352188  0.03591207    -0.07100
N628        N  0.31970329  0.54581129  0.04326783    -0.61600
N629        N  0.27442475  0.52139722  0.06669168    -0.06700
N630        N  0.28745299  0.54171644  0.09582150    -0.59500
N631        N  0.25587936  0.95494038  0.03555283    -0.06400
N632        N  0.26020387  0.93239567  0.04101173    -0.62000
C633        C  0.24428813  0.91820723  0.07817698     0.94800
C634        C  0.31550054  0.55685573  0.08077675     0.94600
N635        N  0.27194765  0.52520979  0.39990385    -0.07600
N636        N  0.28701694  0.54701095  0.37062724    -0.60100
N637        N  0.25952049  0.95687840  0.43135574    -0.05700
N638        N  0.26555438  0.93600315  0.42206284    -0.61300
N639        N  0.24249511  0.95844088  0.40105121    -0.07600
N640        N  0.23685406  0.93930860  0.37045946    -0.60400
N641        N  0.28906308  0.52487006  0.43121140    -0.05300
N642        N  0.31612755  0.54679836  0.42419554    -0.61400
Mn643      Mn  0.27579835  0.98919841  0.48457419     1.18400
C644        C  0.31446720  0.56030738  0.38627610     0.96900
C645        C  0.25115810  0.92541438  0.38390615     0.97500
N646        N  0.21451171  0.51998263  0.06620316    -0.07600
N647        N  0.22270649  0.54224194  0.09193439    -0.63900
N648        N  0.16190761  0.95733554  0.03744077    -0.06400
N649        N  0.13459582  0.93607946  0.04564678    -0.64600
N650        N  0.17904676  0.95673025  0.06848297    -0.07100
N651        N  0.16387088  0.93560436  0.09865815    -0.64200
N652        N  0.19702939  0.52035097  0.03568244    -0.06000
N653        N  0.19315772  0.54309507  0.03954770    -0.64900
Mn654      Mn  0.22571988  0.98913779  0.06886229     1.10700
C655        C  0.20944911  0.55647066  0.07470487     0.98100
C656        C  0.13623443  0.92285904  0.08402500     0.98200
N657        N  0.18218296  0.95605882  0.40235196    -0.07100
N658        N  0.16897059  0.93508948  0.37416445    -0.62500
N659        N  0.19443314  0.52564006  0.42941575    -0.06500
N660        N  0.18870585  0.54698228  0.41954189    -0.59200
N661        N  0.21199003  0.52515885  0.39851594    -0.07800
N662        N  0.21808434  0.54554908  0.36698212    -0.62100
N663        N  0.16343834  0.95408409  0.43320457    -0.06800
N664        N  0.13707209  0.93149253  0.42698488    -0.59300
Mn665      Mn  0.22860976  0.99065422  0.40082721     1.20200
Mn666      Mn  0.17758886  0.98649110  0.48445433     1.10100
Cl667      Cl  0.22675808  0.98785981  0.48471662    -0.87200
C668        C  0.14103566  0.91985778  0.39010119     0.95100
C669        C  0.20354905  0.55910743  0.38038159     0.94900
C670        C  0.21702616  0.60081269  0.21238084    -0.17700
C671        C  0.21241627  0.61708311  0.24042502    -0.32900
H672        H  0.22060097  0.58342152  0.22553691     0.11300
H673        H  0.20900095  0.63457537  0.22725412     0.11900
C674        C  0.34784322  0.75117335  0.21669913    -0.17700
C675        C  0.36746526  0.75188120  0.24533133    -0.32900
H676        H  0.32830919  0.75094112  0.22914518     0.11300
H677        H  0.38701656  0.75214530  0.23289009     0.11900
C678        C  0.34739951  0.60015658  0.22273164    -0.17700
C679        C  0.36602219  0.61974989  0.25052881    -0.32900
H680        H  0.32817962  0.58048844  0.23610053     0.11300
H681        H  0.38537675  0.63930336  0.23720034     0.11900
C682        C  0.08752753  0.73100375  0.24168465    -0.17700
C683        C  0.10672450  0.73142304  0.21207864    -0.32900
H684        H  0.06768475  0.73027981  0.23017796     0.11300
H685        H  0.12638726  0.73177113  0.22360976     0.11900
C686        C  0.10630715  0.87888251  0.24847474    -0.17700
C687        C  0.08577466  0.86213280  0.22039201    -0.32900
H688        H  0.12676907  0.89728370  0.23544941     0.11300
H689        H  0.06530731  0.84375845  0.23346162     0.11900
C690        C  0.24095545  0.88215400  0.24053656    -0.17700
C691        C  0.23921844  0.86146473  0.21378853    -0.32900
H692        H  0.24141965  0.90160871  0.22637487     0.11300
H693        H  0.23895626  0.84211516  0.22797599     0.11900
C694        C  0.24826689  0.89415870  0.60353503     0.78900
N695        N  0.24364767  0.88945223  0.64814451    -0.79400
C696        C  0.24215302  0.86531631  0.66834383     0.81400
N697        N  0.24434013  0.84554398  0.64334989    -0.79300
C698        C  0.24900755  0.85022414  0.59873728     0.81500
N699        N  0.25133268  0.87473371  0.57886912    -0.81000
C700        C  0.24659195  0.90011442  0.86170690     0.78900
N701        N  0.24262000  0.90013101  0.81730054    -0.79400
C702        C  0.24052075  0.87813414  0.79275393     0.81400
N703        N  0.24157877  0.85534899  0.81312821    -0.79300
C704        C  0.24546773  0.85487850  0.85754219     0.81500
N705        N  0.24843305  0.87757366  0.88194361    -0.81000
C706        C  0.11813907  0.90244231  0.86344962     0.78900
N707        N  0.12221800  0.90141198  0.81925652    -0.79400
C708        C  0.10201677  0.87920869  0.79572589     0.81400
N709        N  0.07774564  0.85729966  0.81709552    -0.79300
C710        C  0.07344954  0.85815553  0.86147332     0.81500
N711        N  0.09354364  0.88096814  0.88462357    -0.81000
C712        C  0.11154876  0.89045439  0.60534891     0.78900
N713        N  0.11168450  0.88684932  0.65022847    -0.79400
C714        C  0.08929654  0.86302908  0.67189302     0.81400
N715        N  0.06733020  0.84253315  0.64824984    -0.80200
C716        C  0.06694189  0.84595525  0.60357489     0.81500
N717        N  0.08885212  0.87017594  0.58205117    -0.81000
C718        C  0.06721905  0.71486285  0.60247860     0.78900
N719        N  0.07153455  0.71814014  0.64705438    -0.79400
C720        C  0.09640092  0.72053375  0.66469319     0.81400
N721        N  0.11684250  0.72057502  0.63770221    -0.79300
C722        C  0.11289659  0.71756779  0.59369137     0.81500
N723        N  0.08789783  0.71425734  0.57585601    -0.81000
C724        C  0.07081132  0.72302752  0.86223198     0.78900
N725        N  0.06935319  0.72508785  0.81776356    -0.79400
C726        C  0.08924414  0.72403015  0.79080675     0.81400
N727        N  0.11181760  0.72181943  0.80882252    -0.79300
C728        C  0.11344949  0.71971122  0.85388579     0.81500
N729        N  0.09254210  0.71982436  0.88053503    -0.81000
C730        C  0.36488243  0.61717515  0.79902511     0.78900
N731        N  0.34284094  0.59320261  0.82075303    -0.79400
C732        C  0.34347933  0.58922858  0.86537951     0.81400
N733        N  0.36634516  0.60935100  0.88855232    -0.79300
C734        C  0.38799929  0.63379357  0.86709343     0.81500
N735        N  0.38713906  0.63757695  0.82249566    -0.81000
C736        C  0.35031423  0.60055039  0.67559762     0.78900
N737        N  0.37435494  0.62256377  0.65405573    -0.79400
C738        C  0.37852047  0.62185245  0.60968476     0.81400
N739        N  0.35842431  0.59897988  0.58655221    -0.79300
C740        C  0.33393029  0.57728721  0.60779484     0.81500
N741        N  0.33003890  0.57821251  0.65216568    -0.81000
C742        C  0.35078884  0.75100070  0.66847483     0.78900
N743        N  0.37486877  0.75222695  0.64930184    -0.79400
C744        C  0.37939607  0.75626519  0.60452353     0.81400
N745        N  0.35980466  0.75923048  0.57882891    -0.79300
C746        C  0.33534235  0.75716127  0.59788820     0.81500
N747        N  0.33098660  0.75298859  0.64249882    -0.81000
C748        C  0.36481525  0.75421982  0.79349268     0.78900
N749        N  0.38726345  0.75752501  0.81872063    -0.79400
C750        C  0.38766922  0.76266232  0.86250838     0.81400
N751        N  0.36519013  0.76443231  0.88159038    -0.79300
C752        C  0.34210792  0.76042748  0.85667315     0.81500
N753        N  0.34197652  0.75532879  0.81269938    -0.81000
C754        C  0.21095148  0.60195699  0.79061412     0.78900
N755        N  0.20932942  0.58046474  0.81785116    -0.79400
C756        C  0.20594056  0.58078147  0.86210498     0.81400
N757        N  0.20405911  0.60309024  0.88003704    -0.79300
C758        C  0.20634622  0.62553185  0.85327114     0.81500
N759        N  0.20989055  0.62502850  0.80829099    -0.81000
C760        C  0.21286981  0.61230768  0.66345676     0.78900
N761        N  0.20996956  0.58741248  0.64589205    -0.79400
C762        C  0.20518432  0.58297945  0.60149583     0.81400
N763        N  0.20307922  0.60335661  0.57517589    -0.79300
C764        C  0.20667185  0.62825543  0.59293965     0.81500
N765        N  0.21165718  0.63247835  0.63656537    -0.81000
N766        N  0.24035534  0.78721926  0.88888677    -0.07400
N767        N  0.23330372  0.80262009  0.86138546    -0.59500
N768        N  0.29138873  0.77028664  0.91996517    -0.07100
N769        N  0.31841299  0.77524991  0.91424970    -0.61600
N770        N  0.27449834  0.75373363  0.88867495    -0.06700
N771        N  0.28980523  0.74750264  0.86066671    -0.59500
N772        N  0.25700448  0.80391099  0.92027195    -0.06400
N773        N  0.26118807  0.83077336  0.91516392    -0.62000
C774        C  0.24629715  0.82964037  0.87832360     0.94800
C775        C  0.31706116  0.76098440  0.87712075     0.94600
N776        N  0.27127760  0.75158679  0.55485657    -0.07600
N777        N  0.28422156  0.74393230  0.58526721    -0.60100
N778        N  0.25746148  0.80459049  0.52422333    -0.05700
N779        N  0.26413977  0.83150956  0.53408664    -0.61300
N780        N  0.23897514  0.78559279  0.55429615    -0.07600
N781        N  0.23298773  0.79884382  0.58541321    -0.60400
N782        N  0.29036544  0.76954623  0.52445578    -0.05300
N783        N  0.31692528  0.77420720  0.53337232    -0.61400
Mn784      Mn  0.27449523  0.78688283  0.97203886     1.18400
C785        C  0.31253231  0.75790594  0.57139521     0.96900
C786        C  0.24859069  0.82731621  0.57238046     0.97500
N787        N  0.21422790  0.69286356  0.88765556    -0.07600
N788        N  0.22020714  0.67848296  0.85790478    -0.63900
N789        N  0.16256627  0.70828482  0.91934314    -0.06400
N790        N  0.13554903  0.70280701  0.91252261    -0.64600
N791        N  0.18048818  0.72623898  0.88765163    -0.07100
N792        N  0.16595010  0.73283150  0.85825424    -0.64200
N793        N  0.19675186  0.67460674  0.91953109    -0.06000
N794        N  0.19092974  0.64761620  0.91236549    -0.64900
Mn795      Mn  0.22755467  0.74016125  0.88676011     1.10700
C796        C  0.20557169  0.65028651  0.87380298     0.98100
C797        C  0.13797447  0.71809832  0.87422443     0.98200
N798        N  0.17914296  0.72734262  0.55230557    -0.07100
N799        N  0.16463054  0.73347527  0.58154333    -0.62500
N800        N  0.19487021  0.67597802  0.52330292    -0.06500
N801        N  0.19060938  0.64915990  0.53045594    -0.59200
N802        N  0.21210996  0.69350262  0.55323054    -0.07800
N803        N  0.21980198  0.67931126  0.58149635    -0.62100
N804        N  0.16148402  0.71054201  0.52204643    -0.06800
N805        N  0.13441418  0.70503261  0.52984612    -0.59300
Mn806      Mn  0.22519336  0.73942683  0.55452913     1.20200
Mn807      Mn  0.17820702  0.68954900  0.97252603     1.10100
Cl808      Cl  0.22638727  0.73815824  0.97170808    -0.87200
C809        C  0.13698198  0.71972866  0.56698612     0.95100
C810        C  0.20652450  0.65188002  0.56688235     0.94900
N811        N  0.00752410  0.78148645  0.56655290    -0.07400
N812        N  0.02820828  0.79473719  0.59548330    -0.59500
N813        N  0.44072587  0.76739714  0.54050178    -0.07100
N814        N  0.41895757  0.77273248  0.54635677    -0.61600
N815        N  0.44010658  0.74927525  0.57218758    -0.06700
N816        N  0.41823032  0.74240107  0.60070950    -0.59500
N817        N  0.00920610  0.80023080  0.53511179    -0.06400
N818        N  0.03148056  0.82671121  0.54183748    -0.62000
C819        C  0.04304810  0.82276637  0.57960142     0.94800
C820        C  0.40520000  0.75707642  0.58402968     0.94600
N821        N  0.44649620  0.75728361  0.90449915    -0.07600
N822        N  0.42637322  0.75061118  0.87462581    -0.60100
N823        N  0.01278783  0.80863003  0.92951501    -0.05700
N824        N  0.03457018  0.83573191  0.92159846    -0.61300
N825        N  0.01312762  0.79129028  0.89942891    -0.07600
N826        N  0.03464581  0.80611128  0.87004500    -0.60400
N827        N  0.44457884  0.77377397  0.93459440    -0.05300
N828        N  0.42254467  0.77842173  0.92591613    -0.61400
Mn829      Mn  0.47760496  0.79064772  0.98717528     1.18400
C830        C  0.41151216  0.76368901  0.88832401     0.96900
C831        C  0.04786851  0.83370553  0.88431806     0.97500
N832        N  0.43968020  0.68878901  0.57348332    -0.07600
N833        N  0.41786510  0.67384244  0.60240138    -0.63900
N834        N  0.50775115  0.70515889  0.54242430    -0.06400
N835        N  0.02892126  0.69930652  0.54488819    -0.64600
N836        N  0.50693098  0.72165016  0.57363627    -0.07100
N837        N  0.02715702  0.72706154  0.59809750    -0.64200
N838        N  0.43974395  0.67165448  0.54274548    -0.06000
N839        N  0.41753257  0.64466865  0.54976913    -0.64900
Mn840      Mn  0.47332230  0.73526815  0.57420175     1.10700
C841        C  0.40418549  0.64646371  0.58713002     0.98100
C842        C  0.04105570  0.71330700  0.58251385     0.98200
N843        N  0.51307309  0.73189896  0.90697660    -0.07100
N844        N  0.03535458  0.73942019  0.87344117    -0.62500
N845        N  0.44501999  0.67938814  0.93699508    -0.06500
N846        N  0.42323913  0.65279769  0.92932307    -0.59200
N847        N  0.44660628  0.69828022  0.90593596    -0.07800
N848        N  0.42640011  0.68507869  0.87630465    -0.62100
N849        N  0.51304441  0.71333446  0.93721517    -0.06800
N850        N  0.03590244  0.70902038  0.92661770    -0.59300
Mn851      Mn  0.47994367  0.74470497  0.90473958     1.20200
Mn852      Mn  0.47791014  0.69383648  0.98958212     1.10100
Cl853      Cl  0.47790600  0.74228913  0.98879224    -0.87200
C854        C  0.04887238  0.72504934  0.88885474     0.95100
C855        C  0.41191801  0.65686515  0.89132918     0.94900
N856        N  0.23938235  0.95308934  0.56788559    -0.07400
N857        N  0.23328105  0.93170122  0.59742017    -0.59500
N858        N  0.28724491  0.52160596  0.53684434    -0.07100
N859        N  0.31407095  0.54288857  0.54501462    -0.61600
N860        N  0.26870225  0.51983542  0.56797001    -0.06700
N861        N  0.28237802  0.53937462  0.59806231    -0.59500
N862        N  0.25745012  0.95399755  0.53665345    -0.06400
N863        N  0.26364655  0.93287462  0.54386586    -0.62000
C864        C  0.24847473  0.91932536  0.58185657     0.94800
C865        C  0.31053518  0.55368192  0.58334378     0.94600
N866        N  0.27735897  0.52713176  0.90139709    -0.07600
N867        N  0.29168669  0.54945250  0.87272705    -0.60100
N868        N  0.25813718  0.95778034  0.93140055    -0.05700
N869        N  0.26236088  0.93542380  0.92406033    -0.61300
N870        N  0.24160630  0.95980588  0.90065417    -0.07600
N871        N  0.23457653  0.93934202  0.87160966    -0.60400
N872        N  0.29502203  0.52698183  0.93184177    -0.05300
N873        N  0.32173480  0.54961235  0.92499344    -0.61400
Mn874      Mn  0.27538841  0.99045579  0.98400101     1.18400
C875        C  0.31922149  0.56333974  0.88799209     0.96900
C876        C  0.24740669  0.92415159  0.88656474     0.97500
N877        N  0.20940011  0.52121307  0.56832422    -0.07600
N878        N  0.21595777  0.54182065  0.59726371    -0.63900
N879        N  0.16109129  0.95128407  0.53703121    -0.06400
N880        N  0.13414226  0.92915761  0.54440266    -0.64600
N881        N  0.17850359  0.95132603  0.56809266    -0.07100
N882        N  0.16374331  0.92964052  0.59764714    -0.64200
N883        N  0.19318278  0.52313679  0.53677362    -0.06000
N884        N  0.18875904  0.54535648  0.54343119    -0.64900
Mn885      Mn  0.22495271  0.98546097  0.56884104     1.10700
C886        C  0.20296436  0.55672624  0.58136612     0.98100
C887        C  0.13620409  0.91593520  0.58235279     0.98200
N888        N  0.18289964  0.96098537  0.90113445    -0.07100
N889        N  0.16939060  0.94052601  0.87233717    -0.62500
N890        N  0.19779398  0.52304743  0.93356428    -0.06500
N891        N  0.19139948  0.54410604  0.92588669    -0.59200
N892        N  0.21658106  0.52446747  0.90331335    -0.07800
N893        N  0.22312523  0.54600952  0.87419001    -0.62100
N894        N  0.16435143  0.95964525  0.93188424    -0.06800
N895        N  0.13765796  0.93778894  0.92476421    -0.59300
Mn896      Mn  0.22934738  0.99400929  0.89946147     1.20200
Mn897      Mn  0.17956080  0.99258948  0.98377113     1.10100
Cl898      Cl  0.22749677  0.99164899  0.98407610    -0.87200
C899        C  0.14135103  0.92619001  0.88746978     0.95100
C900        C  0.20763237  0.55823149  0.88879584     0.94900
C901        C  0.21542702  0.61797201  0.71140931    -0.17700
C902        C  0.21262998  0.59817091  0.74248453    -0.32900
H903        H  0.21770883  0.63860949  0.72150353     0.11300
H904        H  0.21032071  0.57752651  0.73236485     0.11900
C905        C  0.34649292  0.74950785  0.71716814    -0.17700
C906        C  0.36669056  0.75094313  0.74532577    -0.32900
H907        H  0.32701210  0.74922367  0.72998499     0.11300
H908        H  0.38628926  0.75149371  0.73244137     0.11900
C909        C  0.34651603  0.59964555  0.72437669    -0.17700
C910        C  0.36622502  0.62043577  0.75003676    -0.32900
H911        H  0.32774966  0.58042507  0.73968714     0.11300
H912        H  0.38504176  0.63961570  0.73474051     0.11900
C913        C  0.08447026  0.72408128  0.74268271    -0.17700
C914        C  0.10217705  0.72250072  0.71258046    -0.32900
H915        H  0.06510582  0.72462662  0.73187954     0.11300
H916        H  0.12166364  0.72218703  0.72335809     0.11900
C917        C  0.10639756  0.88034411  0.74705719    -0.17700
C918        C  0.08715888  0.85972985  0.72087897    -0.32900
H919        H  0.12537875  0.89959261  0.73222376     0.11300
H920        H  0.06813419  0.84051911  0.73570274     0.11900
C921        C  0.23889362  0.88036602  0.74403359    -0.17700
C922        C  0.23941795  0.86078267  0.71712824    -0.32900
H923        H  0.23902155  0.89966260  0.72988222     0.11300
H924        H  0.23947914  0.84157491  0.73124283     0.11900
C925        C  0.74784621  0.39595812  0.10811802     0.78900
N926        N  0.74308345  0.39078969  0.15267505    -0.79400
C927        C  0.74140391  0.36642298  0.17232026     0.81400
N928        N  0.74367850  0.34690083  0.14687972    -0.79300
C929        C  0.74847768  0.35190548  0.10234398     0.81500
N930        N  0.75093330  0.37666850  0.08292859    -0.81000
C931        C  0.74458343  0.39846070  0.36708711     0.78900
N932        N  0.74092526  0.39919174  0.32265242    -0.79400
C933        C  0.73916113  0.37763916  0.29729945     0.81400
N934        N  0.74017563  0.35460053  0.31691944    -0.79300
C935        C  0.74374050  0.35352987  0.36137148     0.81500
N936        N  0.74640853  0.37576022  0.38647327    -0.81000
C937        C  0.61474843  0.39980612  0.37262966     0.78900
N938        N  0.61950445  0.39948966  0.32856786    -0.79400
C939        C  0.60004873  0.37748599  0.30410952     0.81400
N940        N  0.57570400  0.35486315  0.32448240    -0.79300
C941        C  0.57077141  0.35500440  0.36894165     0.81500
N942        N  0.59021121  0.37773068  0.39290353    -0.81000
C943        C  0.61340520  0.39394164  0.11395591     0.78900
N944        N  0.61290394  0.38929172  0.15878175    -0.79400
C945        C  0.59019638  0.36496003  0.17909871     0.81400
N946        N  0.56862534  0.34515308  0.15430956    -0.80200
C947        C  0.56871949  0.34948201  0.10985608     0.81500
N948        N  0.59093810  0.37414376  0.08949683    -0.81000
C949        C  0.57086767  0.21914708  0.10865001     0.78900
N950        N  0.57513658  0.22270166  0.15311006    -0.79400
C951        C  0.59958557  0.22450144  0.17126423     0.81400
N952        N  0.61977826  0.22354567  0.14473918    -0.79300
C953        C  0.61582439  0.22004486  0.10068125     0.81500
N954        N  0.59115235  0.21743748  0.08248957    -0.81000
C955        C  0.56801107  0.21933862  0.36852772     0.78900
N956        N  0.56785154  0.22355711  0.32412318    -0.79400
C957        C  0.58896658  0.22450530  0.29742764     0.81400
N958        N  0.61129900  0.22210771  0.31574439    -0.79300
C959        C  0.61164040  0.21784848  0.36056441     0.81500
N960        N  0.58967232  0.21605357  0.38692436    -0.81000
C961        C  0.85504692  0.10211283  0.29974705     0.78900
N962        N  0.83437792  0.08105581  0.32656225    -0.79400
C963        C  0.83740697  0.08093325  0.37068926     0.81400
N964        N  0.86174063  0.10235711  0.38923988    -0.79300
C965        C  0.88275744  0.12460942  0.36305014     0.81500
N966        N  0.87945079  0.12454877  0.31786135    -0.81000
C967        C  0.86399177  0.11123380  0.17237898     0.78900
N968        N  0.88492920  0.13196016  0.14553758    -0.79400
C969        C  0.88515657  0.12885791  0.10156417     0.81400
N970        N  0.86390275  0.10438938  0.08316690    -0.79300
C971        C  0.84178104  0.08328210  0.10939578     0.81500
N972        N  0.84175909  0.08668379  0.15440470    -0.81000
C973        C  0.85515353  0.25741686  0.16723173     0.78900
N974        N  0.87947188  0.25882769  0.14825698    -0.79400
C975        C  0.88387433  0.26263034  0.10325564     0.81400
N976        N  0.86395290  0.26493370  0.07754684    -0.79300
C977        C  0.83946288  0.26263155  0.09664048     0.81500
N978        N  0.83527831  0.25890755  0.14111102    -0.81000
C979        C  0.86410830  0.25509484  0.29335584     0.78900
N980        N  0.88503757  0.25567434  0.31932850    -0.79400
C981        C  0.88450352  0.25894201  0.36346827     0.81400
N982        N  0.86248516  0.26157455  0.38245116    -0.79300
C983        C  0.84062706  0.26016819  0.35686152     0.81500
N984        N  0.84148129  0.25693130  0.31221153    -0.81000
C985        C  0.71435169  0.10333250  0.29595497     0.78900
N986        N  0.71199706  0.08132392  0.32282191    -0.79400
C987        C  0.70706179  0.08070709  0.36691633     0.81400
N988        N  0.70464064  0.10266197  0.38498315    -0.79300
C989        C  0.70784166  0.12561315  0.35860441     0.81500
N990        N  0.71262809  0.12593051  0.31389187    -0.81000
C991        C  0.71397246  0.11382565  0.16925284     0.78900
N992        N  0.71235995  0.08958014  0.15134195    -0.79400
C993        C  0.70828653  0.08551584  0.10680952     0.81400
N994        N  0.70584019  0.10571543  0.08058068    -0.79300
C995        C  0.70821475  0.13005786  0.09861455     0.81500
N996        N  0.71227128  0.13384143  0.14253202    -0.81000
N997        N  0.73819808  0.28576833  0.39292018    -0.07400
N998        N  0.73137899  0.30119854  0.36507631    -0.59500
N999        N  0.78999860  0.26960547  0.42218781    -0.07100
N1000       N  0.81711869  0.27495756  0.41539268    -0.61600
N1001       N  0.77294510  0.25308490  0.39101323    -0.06700
N1002       N  0.78818227  0.24734621  0.36203829    -0.59500
N1003       N  0.75482916  0.30247239  0.42430885    -0.06400
N1004       N  0.75926212  0.32938676  0.41887081    -0.62000
C1005       C  0.74453929  0.32826039  0.38184444     0.94800
C1006       C  0.81566636  0.26106844  0.37767220     0.94600
N1007       N  0.77435970  0.25487202  0.05618333    -0.07600
N1008       N  0.78803790  0.24742595  0.08545493    -0.60100
N1009       N  0.75885199  0.30715092  0.02812005    -0.05700
N1010       N  0.76436569  0.33380053  0.03754648    -0.61300
N1011       N  0.74101779  0.28791786  0.05853456    -0.07600
N1012       N  0.73436816  0.30080276  0.08947149    -0.60400
N1013       N  0.79288320  0.27334379  0.02565552    -0.05300
N1014       N  0.81977082  0.27865032  0.03329393    -0.61400
Mn1015     Mn  0.77278500  0.28560475  0.47557717     1.18400
C1016       C  0.81613358  0.26210601  0.07063419     0.96900
C1017       C  0.74881410  0.32926700  0.07594561     0.97500
N1018       N  0.71329736  0.19190484  0.39209199    -0.07600
N1019       N  0.72006994  0.17794905  0.36271521    -0.63900
N1020       N  0.66105255  0.20620963  0.42465552    -0.06400
N1021       N  0.63396573  0.20072290  0.41851551    -0.64600
N1022       N  0.67877099  0.22447201  0.39306230    -0.07100
N1023       N  0.66405785  0.23129826  0.36442156    -0.64200
N1024       N  0.69619042  0.17348857  0.42411781    -0.06000
N1025       N  0.69138842  0.14680171  0.41742456    -0.64900
Mn1026     Mn  0.72584195  0.23887961  0.39086951     1.10700
C1027       C  0.70629183  0.14986994  0.37901531     0.98100
C1028       C  0.63620458  0.21639181  0.38074279     0.98200
N1029       N  0.68173484  0.22884019  0.05811516    -0.07100
N1030       N  0.66743909  0.23484112  0.08798860    -0.62500
N1031       N  0.69813059  0.17833359  0.02735257    -0.06500
N1032       N  0.69312513  0.15131054  0.03532497    -0.59200
N1033       N  0.71550975  0.19590602  0.05712184    -0.07800
N1034       N  0.72247380  0.18149460  0.08620375    -0.62100
N1035       N  0.66386322  0.21209457  0.02796508    -0.06800
N1036       N  0.63682029  0.20655618  0.03655906    -0.59300
Mn1037     Mn  0.72810203  0.24183879  0.05836121     1.20200
Mn1038     Mn  0.67713160  0.18762954  0.47722476     1.10100
Cl1039     Cl  0.72497611  0.23663020  0.47586832    -0.87200
C1040       C  0.63963544  0.22110608  0.07407939     0.95100
C1041       C  0.70867866  0.15390142  0.07213931     0.94900
N1042       N  0.50929137  0.28490938  0.07304615    -0.07400
N1043       N  0.53035930  0.29828844  0.10132145    -0.59500
N1044       N  0.94411637  0.27341917  0.03644877    -0.07100
N1045       N  0.92279066  0.27920316  0.04391462    -0.61600
N1046       N  0.94364821  0.25501298  0.06742636    -0.06700
N1047       N  0.92241367  0.24838408  0.09710748    -0.59500
N1048       N  0.51048983  0.30361482  0.04190917    -0.06400
N1049       N  0.53282468  0.33018862  0.04822638    -0.62000
C1050       C  0.54497212  0.32633803  0.08541722     0.94800
C1051       C  0.90956129  0.26356198  0.08192588     0.94600
N1052       N  0.94231390  0.25087167  0.40263946    -0.07600
N1053       N  0.92151614  0.24439303  0.37401361    -0.60100
N1054       N  0.51079651  0.30464992  0.43749091    -0.05700
N1055       N  0.53219697  0.33187830  0.42923588    -0.61300
N1056       N  0.51103966  0.28744397  0.40707849    -0.07600
N1057       N  0.53220576  0.30253161  0.37717209    -0.60400
N1058       N  0.94135430  0.26768524  0.43314852    -0.05300
N1059       N  0.91947601  0.27278073  0.42601725    -0.61400
Mn1060     Mn  0.97479082  0.28442749  0.48465087     1.18400
C1061       C  0.90734032  0.25790123  0.38906121     0.96900
C1062       C  0.54525073  0.33014810  0.39145933     0.97500
N1063       N  0.94392814  0.19541176  0.06453700    -0.07600
N1064       N  0.92138967  0.18047754  0.09179977    -0.63900
N1065       N  0.01238546  0.21232924  0.03675615    -0.06400
N1066       N  0.53258745  0.20363616  0.05122522    -0.64600
N1067       N  0.01083827  0.22834831  0.06807376    -0.07100
N1068       N  0.53060091  0.23122991  0.10452239    -0.64200
N1069       N  0.94475584  0.17840496  0.03430782    -0.06000
N1070       N  0.92250037  0.15137888  0.04014902    -0.64900
Mn1071     Mn  0.97703855  0.24144906  0.06797633     1.10700
C1072       C  0.90815278  0.15330579  0.07600966     0.98100
C1073       C  0.54480822  0.21780972  0.08861646     0.98200
N1074       N  0.00877746  0.22458778  0.40290247    -0.07100
N1075       N  0.53219635  0.23509618  0.38063815    -0.62500
N1076       N  0.94051858  0.17214983  0.43173537    -0.06500
N1077       N  0.91940792  0.14533892  0.42339019    -0.59200
N1078       N  0.94192431  0.19085318  0.40042919    -0.07800
N1079       N  0.92221698  0.17711647  0.36993708    -0.62100
N1080       N  0.00863417  0.20613005  0.43349339    -0.06800
N1081       N  0.53243758  0.20400836  0.43286136    -0.59300
Mn1082     Mn  0.97562792  0.23780616  0.40070447     1.20200
Mn1083     Mn  0.97338984  0.18683941  0.48544989     1.10100
Cl1084     Cl  0.97408821  0.23563554  0.48524061    -0.87200
C1085       C  0.54542816  0.22030445  0.39521045     0.95100
C1086       C  0.90827430  0.14870902  0.38461172     0.94900
N1087       N  0.74169215  0.45737738  0.07624216    -0.07400
N1088       N  0.73472943  0.43508040  0.10446605    -0.59500
N1089       N  0.79334870  0.02588895  0.04126951    -0.07100
N1090       N  0.82031807  0.04693040  0.04930485    -0.61600
N1091       N  0.77512872  0.02437134  0.07284025    -0.06700
N1092       N  0.78934395  0.04387657  0.10308432    -0.59500
N1093       N  0.75926888  0.45806443  0.04427683    -0.06400
N1094       N  0.76422557  0.43594858  0.04981131    -0.62000
C1095       C  0.74883300  0.42193399  0.08746864     0.94800
C1096       C  0.81752374  0.05783426  0.08810206     0.94600
N1097       N  0.77142291  0.02153945  0.40808769    -0.07600
N1098       N  0.78586038  0.04432062  0.38067005    -0.60100
N1099       N  0.75458065  0.45381643  0.44021436    -0.05700
N1100       N  0.75963525  0.43224468  0.43107775    -0.61300
N1101       N  0.73772756  0.45594161  0.41020302    -0.07600
N1102       N  0.73129278  0.43641723  0.37980165    -0.60400
N1103       N  0.78892028  0.02065742  0.43806814    -0.05300
N1104       N  0.81579127  0.04308391  0.43204156    -0.61400
Mn1105     Mn  0.77192007  0.48611659  0.49319078     1.18400
C1106       C  0.81325782  0.05764313  0.39626769     0.96900
C1107       C  0.74482708  0.42163508  0.39324939     0.97500
N1108       N  0.71497597  0.02528306  0.07292438    -0.07600
N1109       N  0.72087243  0.04559772  0.10214569    -0.63900
N1110       N  0.66340770  0.45606782  0.04760259    -0.06400
N1111       N  0.63649915  0.43373006  0.05443457    -0.64600
N1112       N  0.68074113  0.45606357  0.07880703    -0.07100
N1113       N  0.66583083  0.43399767  0.10789327    -0.64200
N1114       N  0.69848275  0.02679587  0.04145252    -0.06000
N1115       N  0.69322488  0.04842632  0.04840623    -0.64900
Mn1116     Mn  0.72769458  0.49036568  0.07908967     1.10700
C1117       C  0.70720529  0.05988808  0.08639796     0.98100
C1118       C  0.63832095  0.42018165  0.09217497     0.98200
N1119       N  0.67920835  0.45718481  0.41221751    -0.07100
N1120       N  0.66576663  0.43722870  0.38279845    -0.62500
N1121       N  0.69416813  0.02095000  0.43797354    -0.06500
N1122       N  0.68958937  0.04323919  0.43023995    -0.59200
N1123       N  0.71259320  0.02132037  0.40805299    -0.07800
N1124       N  0.72072756  0.04330314  0.37917968    -0.62100
N1125       N  0.66059540  0.45579720  0.44283533    -0.06800
N1126       N  0.63382632  0.43431709  0.43505034    -0.59300
Mn1127     Mn  0.72544526  0.48979511  0.41101147     1.20200
Mn1128     Mn  0.67612581  0.48836877  0.49514140     1.10100
Cl1129     Cl  0.72400878  0.48726205  0.49471849    -0.87200
C1130       C  0.63766278  0.42307486  0.39745621     0.95100
C1131       C  0.70654744  0.05691077  0.39345445     0.94900
C1132       C  0.71601672  0.11894810  0.21733148    -0.17700
C1133       C  0.71692862  0.10052515  0.24772997    -0.32900
H1134       H  0.71515433  0.13799336  0.22811732     0.11300
H1135       H  0.71763664  0.08139229  0.23698625     0.11900
C1136       C  0.84980134  0.25547199  0.21568148    -0.17700
C1137       C  0.86770630  0.25371136  0.24504352    -0.32900
H1138       H  0.83085387  0.25661077  0.22746857     0.11300
H1139       H  0.88667952  0.25261686  0.23326548     0.11900
C1140       C  0.86779141  0.11668702  0.22033350    -0.17700
C1141       C  0.84980349  0.09807449  0.25171014    -0.32900
H1142       H  0.88706176  0.13663672  0.23010076     0.11300
H1143       H  0.83047146  0.07818592  0.24192412     0.11900
C1144       C  0.58588959  0.22668846  0.24903422    -0.17700
C1145       C  0.60456575  0.22611237  0.21945706    -0.32900
H1146       H  0.56670596  0.22731949  0.23752106     0.11300
H1147       H  0.62376179  0.22551160  0.23098795     0.11900
C1148       C  0.60554850  0.37986130  0.25561146    -0.17700
C1149       C  0.58703720  0.36015607  0.22786673    -0.32900
H1150       H  0.62478289  0.39950165  0.24219180     0.11300
H1151       H  0.56771255  0.34058400  0.24123878     0.11900
C1152       C  0.73782986  0.38057277  0.24859931    -0.17700
C1153       C  0.73856039  0.36139745  0.22103829    -0.32900
H1154       H  0.73792417  0.39998204  0.23506307     0.11300
H1155       H  0.73863682  0.34207532  0.23457432     0.11900
C1156       C  0.74118196  0.38887035  0.60718647     0.78900
N1157       N  0.73814809  0.38537170  0.65186811    -0.79400
C1158       C  0.73827506  0.36245046  0.67314250     0.81400
N1159       N  0.74056681  0.34225156  0.64896397    -0.79300
C1160       C  0.74373692  0.34557632  0.60383829     0.81500
N1161       N  0.74452818  0.36927851  0.58303461    -0.81000
C1162       C  0.75082960  0.40560933  0.86402907     0.78900
N1163       N  0.74547452  0.40477481  0.81971917    -0.79400
C1164       C  0.74190544  0.38171454  0.79600946     0.81400
N1165       N  0.74277171  0.35916812  0.81715089    -0.79300
C1166       C  0.74797246  0.35977094  0.86103822     0.81500
N1167       N  0.75239998  0.38314336  0.88455820    -0.81000
C1168       C  0.61903845  0.40118284  0.87397512     0.78900
N1169       N  0.62282314  0.40062463  0.82953508    -0.79400
C1170       C  0.60240381  0.37868222  0.80575928     0.81400
N1171       N  0.57827638  0.35657121  0.82703660    -0.79300
C1172       C  0.57420148  0.35682840  0.87155824     0.81500
N1173       N  0.59445202  0.37943289  0.89505034    -0.81000
C1174       C  0.60905176  0.39247101  0.61575983     0.78900
N1175       N  0.60954644  0.38834330  0.66041923    -0.79400
C1176       C  0.58740388  0.36426885  0.68184961     0.81400
N1177       N  0.56529495  0.34398649  0.65808166    -0.80200
C1178       C  0.56464296  0.34793381  0.61350914     0.81500
N1179       N  0.58635854  0.37240657  0.59231536    -0.81000
C1180       C  0.56950359  0.21769689  0.60774170     0.78900
N1181       N  0.57473154  0.22288684  0.65171267    -0.79400
C1182       C  0.59898313  0.22421213  0.66976095     0.81400
N1183       N  0.61793791  0.22099273  0.64361016    -0.79300
C1184       C  0.61307243  0.21582700  0.60004873     0.81500
N1185       N  0.58864474  0.21386857  0.58190840    -0.81000
C1186       C  0.57018869  0.22258874  0.86696634     0.78900
N1187       N  0.56951060  0.22639590  0.82254642    -0.79400
C1188       C  0.59098570  0.22834046  0.79554787     0.81400
N1189       N  0.61422604  0.22746766  0.81355829    -0.79300
C1190       C  0.61513109  0.22381359  0.85840149     0.81500
N1191       N  0.59279868  0.22091664  0.88502456    -0.81000
C1192       C  0.86582547  0.11614272  0.79722132     0.78900
N1193       N  0.84382371  0.09237983  0.81958658    -0.79400
C1194       C  0.84452643  0.08914709  0.86445143     0.81400
N1195       N  0.86739333  0.10980466  0.88701829    -0.79300
C1196       C  0.88893110  0.13395911  0.86476800     0.81500
N1197       N  0.88797901  0.13698644  0.82013315    -0.81000
C1198       C  0.85089576  0.09940238  0.67402090     0.78900
N1199       N  0.87458828  0.12145567  0.65173828    -0.79400
C1200       C  0.87820802  0.12041907  0.60721870     0.81400
N1201       N  0.85798096  0.09716549  0.58486786    -0.79300
C1202       C  0.83392312  0.07551419  0.60704195     0.81500
N1203       N  0.83054924  0.07680253  0.65133078    -0.81000
C1204       C  0.85281362  0.25326201  0.66822941     0.78900
N1205       N  0.87670953  0.25393238  0.64909883    -0.79400
C1206       C  0.88037915  0.25635082  0.60401911     0.81400
N1207       N  0.86019504  0.25820173  0.57829130    -0.79300
C1208       C  0.83607295  0.25664651  0.59758985     0.81500
N1209       N  0.83255359  0.25411372  0.64221154    -0.81000
C1210       C  0.86652582  0.25921095  0.79319554     0.78900
N1211       N  0.88823267  0.26120857  0.81872614    -0.79400
C1212       C  0.88856472  0.26603606  0.86244695     0.81400
N1213       N  0.86675905  0.26900464  0.88140151    -0.79300
C1214       C  0.84428000  0.26642020  0.85621029     0.81500
N1215       N  0.84415220  0.26143500  0.81205400    -0.81000
C1216       C  0.71758770  0.11654007  0.79406429     0.78900
N1217       N  0.71446139  0.09199436  0.81610356    -0.79400
C1218       C  0.71057614  0.08893734  0.86132883     0.81400
N1219       N  0.70971555  0.11041361  0.88398330    -0.79300
C1220       C  0.71378807  0.13507403  0.86174898     0.81500
N1221       N  0.71769957  0.13791328  0.81732144    -0.81000
C1222       C  0.71285868  0.10150781  0.66974793     0.78900
N1223       N  0.71098276  0.07923000  0.64687041    -0.79400
C1224       C  0.70591846  0.07757606  0.60312492     0.81400
N1225       N  0.70254160  0.09858790  0.58113621    -0.79300
C1226       C  0.70511406  0.12181290  0.60335287     0.81500
N1227       N  0.71032237  0.12327549  0.64792929    -0.81000
N1228       N  0.74251311  0.29277342  0.89277128    -0.07400
N1229       N  0.73521324  0.30792053  0.86544380    -0.59500
N1230       N  0.79431314  0.27669723  0.92142074    -0.07100
N1231       N  0.82132534  0.28177979  0.91461767    -0.61600
N1232       N  0.77709845  0.26024838  0.89038457    -0.06700
N1233       N  0.79210402  0.25420505  0.86145940    -0.59500
N1234       N  0.75946234  0.30954299  0.92380751    -0.06400
N1235       N  0.76376006  0.33637642  0.91864038    -0.62000
C1236       C  0.74849247  0.33489942  0.88218570     0.94800
C1237       C  0.81960445  0.26772023  0.87700540     0.94600
N1238       N  0.77048660  0.24818945  0.55783930    -0.07600
N1239       N  0.78446279  0.24105714  0.58702654    -0.60100
N1240       N  0.75415497  0.30018716  0.52957665    -0.05700
N1241       N  0.75956359  0.32684284  0.53907886    -0.61300
N1242       N  0.73667666  0.28100774  0.56038628    -0.07600
N1243       N  0.73027756  0.29403871  0.59161597    -0.60400
N1244       N  0.78874354  0.26658763  0.52695534    -0.05300
N1245       N  0.81574325  0.27210254  0.53429788    -0.61400
Mn1246     Mn  0.77735104  0.29268349  0.97457709     1.18400
C1247       C  0.81246595  0.25578381  0.57178446     0.96900
C1248       C  0.74446092  0.32254561  0.57798564     0.97500
N1249       N  0.71780811  0.20000489  0.89330387    -0.07600
N1250       N  0.72650929  0.18648681  0.86649089    -0.63900
N1251       N  0.66515777  0.21418501  0.92339259    -0.06400
N1252       N  0.63800549  0.20817029  0.91679922    -0.64600
N1253       N  0.68289281  0.23220774  0.89166358    -0.07100
N1254       N  0.66803633  0.23842314  0.86235518    -0.64200
N1255       N  0.70007837  0.18160001  0.92467524    -0.06000
N1256       N  0.69661291  0.15522741  0.92029745    -0.64900
Mn1257     Mn  0.73007269  0.24639458  0.89034536     1.10700
C1258       C  0.71333810  0.15878355  0.88401754     0.98100
C1259       C  0.64012480  0.22331459  0.87860989     0.98200
N1260       N  0.67791202  0.22136969  0.55938024    -0.07100
N1261       N  0.66395999  0.22851088  0.58809771    -0.62500
N1262       N  0.69479017  0.17051735  0.53084176    -0.06500
N1263       N  0.68947049  0.14349447  0.54046222    -0.59200
N1264       N  0.71159706  0.18825829  0.56107828    -0.07800
N1265       N  0.71762452  0.17385026  0.59195712    -0.62100
N1266       N  0.65999073  0.20435287  0.52947984    -0.06800
N1267       N  0.63315580  0.19980566  0.53723001    -0.59300
Mn1268     Mn  0.72414041  0.23463952  0.56029005     1.20200
Mn1269     Mn  0.68078905  0.19566135  0.97573124     1.10100
Cl1270     Cl  0.72905159  0.24423286  0.97465681    -0.87200
C1271       C  0.63625499  0.21519936  0.57398875     0.95100
C1272       C  0.70384682  0.14598430  0.57881832     0.94900
N1273       N  0.50712693  0.28305719  0.57418018    -0.07400
N1274       N  0.52706059  0.29653228  0.60402754    -0.59500
N1275       N  0.94029818  0.26597715  0.53764242    -0.07100
N1276       N  0.91899021  0.27185571  0.54454940    -0.61600
N1277       N  0.93993926  0.24800051  0.56930455    -0.06700
N1278       N  0.91871405  0.24172618  0.59884162    -0.59500
N1279       N  0.50854520  0.30178867  0.54289756    -0.06400
N1280       N  0.52998005  0.32853462  0.55069389    -0.62000
C1281       C  0.54120895  0.32471681  0.58895477     0.94800
C1282       C  0.90580960  0.25668998  0.58285182     0.94600
N1283       N  0.94655803  0.25854846  0.90203759    -0.07600
N1284       N  0.92585603  0.25198900  0.87325006    -0.60100
N1285       N  0.51268230  0.30661474  0.93780310    -0.05700
N1286       N  0.53473094  0.33370847  0.93088906    -0.61300
N1287       N  0.51308489  0.28952401  0.90735424    -0.07600
N1288       N  0.53501989  0.30461828  0.87863135    -0.60400
N1289       N  0.94557411  0.27551944  0.93222644    -0.05300
N1290       N  0.92371795  0.28059432  0.92480996    -0.61400
Mn1291     Mn  0.97886399  0.29238496  0.98372297     1.18400
C1292       C  0.91170594  0.26560353  0.88790660     0.96900
C1293       C  0.54840610  0.33205113  0.89380801     0.97500
N1294       N  0.93892024  0.18726074  0.56917250    -0.07600
N1295       N  0.91747236  0.17241720  0.59869750    -0.63900
N1296       N  0.00653184  0.20303009  0.53810995    -0.06400
N1297       N  0.53091119  0.20212010  0.55096855    -0.64600
N1298       N  0.00603130  0.21981006  0.56911186    -0.07100
N1299       N  0.52933245  0.22998723  0.60417450    -0.64200
N1300       N  0.93844106  0.16999211  0.53814398    -0.06000
N1301       N  0.91628692  0.14302682  0.54578739    -0.64900
Mn1302     Mn  0.97296070  0.23382404  0.57003227     1.10700
C1303       C  0.90348300  0.14497984  0.58368120     0.98100
C1304       C  0.54347123  0.21655387  0.58799173     0.98200
N1305       N  0.01408588  0.23379830  0.90122238    -0.07100
N1306       N  0.53391154  0.23745325  0.87997925    -0.62500
N1307       N  0.94687038  0.18087739  0.93178395    -0.06500
N1308       N  0.92525141  0.15405591  0.92508523    -0.59200
N1309       N  0.94730113  0.19945713  0.90125578    -0.07800
N1310       N  0.92649153  0.18576292  0.87263260    -0.62100
N1311       N  0.01474002  0.21589470  0.93199617    -0.06800
N1312       N  0.53462206  0.20635301  0.93171416    -0.59300
Mn1313     Mn  0.98019251  0.24602623  0.89997439     1.20200
Mn1314     Mn  0.97987587  0.19598318  0.98375597     1.10100
Cl1315     Cl  0.97908965  0.24404853  0.98388740    -0.87200
C1316       C  0.54739301  0.22285522  0.89406414     0.95100
C1317       C  0.91282654  0.15759446  0.88805177     0.94900
N1318       N  0.73536260  0.45057570  0.57604703    -0.07400
N1319       N  0.72781438  0.42786231  0.60369940    -0.59500
N1320       N  0.78737547  0.01729799  0.54056121    -0.07100
N1321       N  0.81402991  0.03941748  0.54691859    -0.61600
N1322       N  0.76899029  0.01602314  0.57145782    -0.06700
N1323       N  0.78263455  0.03673507  0.59987568    -0.59500
N1324       N  0.75272292  0.45092314  0.54410101    -0.06400
N1325       N  0.75698550  0.42835938  0.54881711    -0.62000
C1326       C  0.74127291  0.41419261  0.58599476     0.94800
C1327       C  0.81056117  0.05120580  0.58409857     0.94600
N1328       N  0.77734942  0.02943399  0.90359764    -0.07600
N1329       N  0.79221975  0.05073205  0.87356043    -0.60100
N1330       N  0.76098091  0.46085615  0.93820503    -0.05700
N1331       N  0.76673828  0.43986090  0.92800156    -0.61300
N1332       N  0.74373851  0.46257122  0.90844088    -0.07600
N1333       N  0.73778384  0.44356752  0.87739491    -0.60400
N1334       N  0.79479121  0.02927642  0.93452172    -0.05300
N1335       N  0.82193692  0.05090499  0.92637860    -0.61400
Mn1336     Mn  0.77777080  0.49350726  0.99216871     1.18400
C1337       C  0.81989374  0.06402609  0.88823503     0.96900
C1338       C  0.75207275  0.42944654  0.88981007     0.97500
N1339       N  0.70985218  0.01662440  0.57120887    -0.07600
N1340       N  0.71786687  0.03838228  0.59795138    -0.63900
N1341       N  0.65898477  0.45309860  0.54782192    -0.06400
N1342       N  0.63182996  0.43142309  0.55530543    -0.64600
N1343       N  0.67623903  0.45251533  0.57868360    -0.07100
N1344       N  0.66124072  0.43089063  0.60812713    -0.64200
N1345       N  0.69275879  0.01771404  0.54059042    -0.06000
N1346       N  0.68904500  0.04047975  0.54535746    -0.64900
Mn1347     Mn  0.72296676  0.48505400  0.57902375     1.10700
C1348       C  0.70492306  0.05306009  0.58121787     0.98100
C1349       C  0.63369246  0.41789956  0.59306329     0.98200
N1350       N  0.68366192  0.46055426  0.91178590    -0.07100
N1351       N  0.67032500  0.44011799  0.88278310    -0.62500
N1352       N  0.69975961  0.02963206  0.93436440    -0.06500
N1353       N  0.69411895  0.05108602  0.92486120    -0.59200
N1354       N  0.71737386  0.02932355  0.90342325    -0.07800
N1355       N  0.72360341  0.04989707  0.87222960    -0.62100
N1356       N  0.66501691  0.45854856  0.94287325    -0.06800
N1357       N  0.63850432  0.43630157  0.93583319    -0.59300
Mn1358     Mn  0.72996255  0.49491087  0.90980579     1.20200
Mn1359     Mn  0.67975372  0.49128949  0.99497241     1.10100
Cl1360     Cl  0.72887584  0.49254103  0.99414545    -0.87200
C1361       C  0.64230706  0.42506734  0.89820105     0.95100
C1362       C  0.70912154  0.06342564  0.88587304     0.94900
C1363       C  0.71595646  0.09974345  0.71820136    -0.17700
C1364       C  0.71870823  0.12036583  0.74520391    -0.32900
H1365       H  0.71470995  0.07987968  0.73228388     0.11300
H1366       H  0.72006244  0.14028580  0.73116326     0.11900
C1367       C  0.84868067  0.25326916  0.71666918    -0.17700
C1368       C  0.86878760  0.25552351  0.74532588    -0.32900
H1369       H  0.82909816  0.25307319  0.72881247     0.11300
H1370       H  0.88841670  0.25582888  0.73313658     0.11900
C1371       C  0.84737838  0.09849836  0.72278706    -0.17700
C1372       C  0.86717516  0.11917970  0.74825282    -0.32900
H1373       H  0.82861711  0.07933776  0.73826473     0.11300
H1374       H  0.88599516  0.13829144  0.73279234     0.11900
C1375       C  0.58720327  0.22959496  0.74719705    -0.17700
C1376       C  0.60508173  0.22771646  0.71755016    -0.32900
H1377       H  0.56786133  0.23000641  0.73592743     0.11300
H1378       H  0.62427224  0.22704077  0.72891747     0.11900
C1379       C  0.60609829  0.38034211  0.75690220    -0.17700
C1380       C  0.58598150  0.36038871  0.73075526    -0.32900
H1381       H  0.62516670  0.39947078  0.74201472     0.11300
H1382       H  0.56688555  0.34129148  0.74565019     0.11900
C1383       C  0.73850271  0.38173803  0.74732288    -0.17700
C1384       C  0.73763258  0.36046071  0.72225367    -0.32900
H1385       H  0.73833995  0.40049362  0.73158953     0.11300
H1386       H  0.73815901  0.34188947  0.73796214     0.11900
C1387       C  0.74581389  0.89471266  0.10084059     0.78900
N1388       N  0.74111353  0.88957066  0.14540358    -0.79400
C1389       C  0.73950562  0.86526515  0.16511978     0.81400
N1390       N  0.74181487  0.84573265  0.13972475    -0.79300
C1391       C  0.74661482  0.85063461  0.09515179     0.81500
N1392       N  0.74901152  0.87541180  0.07564647    -0.81000
C1393       C  0.74594718  0.89885321  0.35981446     0.78900
N1394       N  0.74171735  0.89940700  0.31550278    -0.79400
C1395       C  0.73950459  0.87765669  0.29013661     0.81400
N1396       N  0.74070124  0.85469941  0.30968641    -0.79300
C1397       C  0.74488542  0.85398139  0.35400267     0.81500
N1398       N  0.74789202  0.87627540  0.37901559    -0.81000
C1399       C  0.61471239  0.89731180  0.36897657     0.78900
N1400       N  0.61918642  0.89758692  0.32486750    -0.79400
C1401       C  0.59929488  0.87641275  0.29993843     0.81400
N1402       N  0.57459528  0.85382428  0.31994207    -0.79300
C1403       C  0.56994426  0.85342388  0.36473475     0.81500
N1404       N  0.58994762  0.87550178  0.38905927    -0.81000
C1405       C  0.61321141  0.89682220  0.10924543     0.78900
N1406       N  0.61269587  0.89200545  0.15418761    -0.79400
C1407       C  0.59000961  0.86740101  0.17424890     0.81400
N1408       N  0.56872823  0.84765609  0.14929551    -0.80200
C1409       C  0.56890771  0.85205128  0.10501410     0.81500
N1410       N  0.59092680  0.87686598  0.08469952    -0.81000
C1411       C  0.57131332  0.72040959  0.10465684     0.78900
N1412       N  0.57601725  0.72471083  0.14885240    -0.79400
C1413       C  0.60035048  0.72631510  0.16699402     0.81400
N1414       N  0.62007182  0.72437362  0.14058830    -0.79300
C1415       C  0.61564925  0.72006988  0.09666847     0.81500
N1416       N  0.59104933  0.71771919  0.07861215    -0.81000
C1417       C  0.56711430  0.71918249  0.36392198     0.78900
N1418       N  0.56726305  0.72411956  0.31957042    -0.79400
C1419       C  0.58909829  0.72642353  0.29294593     0.81400
N1420       N  0.61175588  0.72468520  0.31126456    -0.79300
C1421       C  0.61188336  0.71985440  0.35589804     0.81500
N1422       N  0.58926277  0.71667572  0.38220562    -0.81000
C1423       C  0.85469023  0.60251467  0.30279918     0.78900
N1424       N  0.83420501  0.58144085  0.32988260    -0.79400
C1425       C  0.83762562  0.58137503  0.37398199     0.81400
N1426       N  0.86205850  0.60294020  0.39211818    -0.79300
C1427       C  0.88279122  0.62516517  0.36555656     0.81500
N1428       N  0.87915255  0.62498079  0.32054497    -0.81000
C1429       C  0.86446170  0.61126092  0.17573875     0.78900
N1430       N  0.88537698  0.63200599  0.14880149    -0.79400
C1431       C  0.88502496  0.62922072  0.10467575     0.81400
N1432       N  0.86329482  0.60502163  0.08635136    -0.79300
C1433       C  0.84128539  0.58393698  0.11278552     0.81500
N1434       N  0.84180202  0.58705484  0.15784276    -0.81000
C1435       C  0.85365759  0.75523897  0.16457865     0.78900
N1436       N  0.87817941  0.75718586  0.14560750    -0.79400
C1437       C  0.88251379  0.76084154  0.10067609     0.81400
N1438       N  0.86237182  0.76263805  0.07485197    -0.79300
C1439       C  0.83761964  0.75983176  0.09380637     0.81500
N1440       N  0.83340840  0.75608415  0.13838021    -0.81000
C1441       C  0.86536576  0.75679223  0.29039149     0.78900
N1442       N  0.88674205  0.75822869  0.31633534    -0.79400
C1443       C  0.88603452  0.76135768  0.36057214     0.81400
N1444       N  0.86347993  0.76308977  0.37951673    -0.79300
C1445       C  0.84133975  0.76095213  0.35387071     0.81500
N1446       N  0.84230210  0.75774403  0.30930395    -0.81000
C1447       C  0.71352194  0.60325583  0.29520190     0.78900
N1448       N  0.71131046  0.58148140  0.32273731    -0.79400
C1449       C  0.70671923  0.58151378  0.36695204     0.81400
N1450       N  0.70452771  0.60381449  0.38416387    -0.79300
C1451       C  0.70764416  0.62639707  0.35700193     0.81500
N1452       N  0.71207323  0.62609531  0.31247048    -0.81000
C1453       C  0.71223909  0.61344160  0.16860399     0.78900
N1454       N  0.71100659  0.58923448  0.15154040    -0.79400
C1455       C  0.70698709  0.58457715  0.10729085     0.81400
N1456       N  0.70422286  0.60421765  0.08012370    -0.79300
C1457       C  0.70617540  0.62865408  0.09718477     0.81500
N1458       N  0.71019455  0.63302238  0.14113286    -0.81000
N1459       N  0.73908813  0.78666393  0.38705157    -0.07400
N1460       N  0.73247689  0.80188714  0.35857522    -0.59500
N1461       N  0.79039960  0.77047708  0.41766896    -0.07100
N1462       N  0.81748435  0.77565003  0.41157041    -0.61600
N1463       N  0.77342375  0.75377799  0.38655752    -0.06700
N1464       N  0.78876839  0.74773685  0.35824427    -0.59500
N1465       N  0.75567399  0.80352175  0.41834711    -0.06400
N1466       N  0.76034549  0.83044707  0.41213145    -0.62000
C1467       C  0.74580166  0.82903557  0.37477537     0.94800
C1468       C  0.81614822  0.76144617  0.37434382     0.94600
N1469       N  0.77291202  0.75263610  0.05199571    -0.07600
N1470       N  0.78628384  0.74521032  0.08189217    -0.60100
N1471       N  0.75802223  0.80541749  0.02260208    -0.05700
N1472       N  0.76319715  0.83211947  0.03117617    -0.61300
N1473       N  0.73997596  0.78637468  0.05299131    -0.07600
N1474       N  0.73284899  0.79942842  0.08306899    -0.60400
N1475       N  0.79161657  0.77071474  0.02135329    -0.05300
N1476       N  0.81836890  0.77576724  0.02954441    -0.61400
Mn1477     Mn  0.77347787  0.78693435  0.47023758     1.18400
C1478       C  0.81444159  0.75949801  0.06737823     0.96900
C1479       C  0.74720401  0.82783237  0.06908513     0.97500
N1480       N  0.71327923  0.69308918  0.38736543    -0.07600
N1481       N  0.72033433  0.67879726  0.35909059    -0.63900
N1482       N  0.66140058  0.70833991  0.41937194    -0.06400
N1483       N  0.63440911  0.70314691  0.41367117    -0.64600
N1484       N  0.67911179  0.72619251  0.38743672    -0.07100
N1485       N  0.66438345  0.73311583  0.35892953    -0.64200
N1486       N  0.69570110  0.67501645  0.41921666    -0.06000
N1487       N  0.69085179  0.64822725  0.41374918    -0.64900
Mn1488     Mn  0.72630164  0.74000170  0.38549700     1.10700
C1489       C  0.70620679  0.65089315  0.37612384     0.98100
C1490       C  0.63660694  0.71864691  0.37583020     0.98200
N1491       N  0.68082963  0.72755061  0.05311990    -0.07100
N1492       N  0.66691108  0.73385698  0.08320826    -0.62500
N1493       N  0.69661537  0.67631937  0.02300618    -0.06500
N1494       N  0.69130205  0.64926676  0.03220213    -0.59200
N1495       N  0.71396358  0.69415403  0.05262196    -0.07800
N1496       N  0.72062307  0.67997017  0.08256190    -0.62100
N1497       N  0.66272373  0.71074685  0.02325113    -0.06800
N1498       N  0.63581657  0.70555588  0.03230761    -0.59300
Mn1499     Mn  0.72687715  0.74015161  0.05328973     1.20200
Mn1500     Mn  0.67711519  0.68968691  0.47147579     1.10100
Cl1501     Cl  0.72536412  0.73834589  0.47017617    -0.87200
C1502       C  0.63902530  0.72029535  0.06983802     0.95100
C1503       C  0.70667021  0.65218195  0.06947112     0.94900
N1504       N  0.51001188  0.78692258  0.06968612    -0.07400
N1505       N  0.53137914  0.80064659  0.09732111    -0.59500
N1506       N  0.94322280  0.77232073  0.03470610    -0.07100
N1507       N  0.92137434  0.77742920  0.04136019    -0.61600
N1508       N  0.94339478  0.75475930  0.06659915    -0.06700
N1509       N  0.92201809  0.74799592  0.09602736    -0.59500
N1510       N  0.51067202  0.80541973  0.03866367    -0.06400
N1511       N  0.53283554  0.83213902  0.04430239    -0.62000
C1512       C  0.54553155  0.82861798  0.08094834     0.94800
C1513       C  0.90845996  0.76221660  0.07976366     0.94600
N1514       N  0.94300065  0.75228876  0.40130761    -0.07600
N1515       N  0.92247833  0.74612938  0.37228166    -0.60100
N1516       N  0.51039083  0.80353095  0.43491170    -0.05700
N1517       N  0.53176966  0.83069874  0.42591469    -0.61300
N1518       N  0.51012638  0.78615797  0.40435987    -0.07600
N1519       N  0.53083543  0.80103746  0.37368032    -0.60400
N1520       N  0.94243229  0.76957231  0.43132733    -0.05300
N1521       N  0.92096963  0.77522743  0.42350627    -0.61400
Mn1522     Mn  0.97599544  0.78608186  0.48310120     1.18400
C1523       C  0.90877751  0.76027150  0.38656296     0.96900
C1524       C  0.54420749  0.82875837  0.38753514     0.97500
N1525       N  0.94404763  0.69548371  0.06653150    -0.07600
N1526       N  0.92166273  0.68083902  0.09423958    -0.63900
N1527       N  0.01217749  0.71207062  0.03770174    -0.06400
N1528       N  0.53284394  0.70510840  0.04767742    -0.64600
N1529       N  0.01125174  0.72874893  0.06844975    -0.07100
N1530       N  0.53143611  0.73298120  0.10102813    -0.64200
N1531       N  0.94447024  0.67820191  0.03644939    -0.06000
N1532       N  0.92209207  0.65128668  0.04280999    -0.64900
Mn1533     Mn  0.97716720  0.74170635  0.06815805     1.10700
C1534       C  0.90808104  0.65354347  0.07883747     0.98100
C1535       C  0.54536332  0.71935119  0.08486536     0.98200
N1536       N  0.00883181  0.72563223  0.40192391    -0.07100
N1537       N  0.53040910  0.73370318  0.37699071    -0.62500
N1538       N  0.94105180  0.67339863  0.43238219    -0.06500
N1539       N  0.91988307  0.64649461  0.42486094    -0.59200
N1540       N  0.94208785  0.69183273  0.40089538    -0.07800
N1541       N  0.92203782  0.67776834  0.37101923    -0.62100
N1542       N  0.00926468  0.70758690  0.43271529    -0.06800
N1543       N  0.53125936  0.70267449  0.42869069    -0.59300
Mn1544     Mn  0.97589929  0.73879210  0.39989540     1.20200
Mn1545     Mn  0.97407754  0.68825387  0.48548381     1.10100
Cl1546     Cl  0.97471056  0.73699134  0.48447080    -0.87200
C1547       C  0.54390130  0.71904389  0.39084467     0.95100
C1548       C  0.90831570  0.64950139  0.38638019     0.94900
N1549       N  0.74103601  0.95728280  0.07025291    -0.07400
N1550       N  0.73337698  0.93447535  0.09779429    -0.59500
N1551       N  0.79280612  0.52590226  0.04596035    -0.07100
N1552       N  0.81966726  0.54735757  0.05331108    -0.61600
N1553       N  0.77462848  0.52429801  0.07769850    -0.06700
N1554       N  0.78885051  0.54418046  0.10746775    -0.59500
N1555       N  0.75870342  0.95795447  0.03848223    -0.06400
N1556       N  0.76301427  0.93537937  0.04337752    -0.62000
C1557       C  0.74711624  0.92100263  0.08048158     0.94800
C1558       C  0.81691901  0.55845313  0.09187313     0.94600
N1559       N  0.77158573  0.52265500  0.41282760    -0.07600
N1560       N  0.78605862  0.54517224  0.38497650    -0.60100
N1561       N  0.75513012  0.95296678  0.43458973    -0.05700
N1562       N  0.76066388  0.93183626  0.42463906    -0.61300
N1563       N  0.73824374  0.95513441  0.40466823    -0.07600
N1564       N  0.73225687  0.93617208  0.37359558    -0.60400
N1565       N  0.78910034  0.52172377  0.44272088    -0.05300
N1566       N  0.81608745  0.54389528  0.43612056    -0.61400
Mn1567     Mn  0.77209658  0.98503356  0.48812666     1.18400
C1568       C  0.81355521  0.55830736  0.40009323     0.96900
C1569       C  0.74614235  0.92169129  0.38642215     0.97500
N1570       N  0.71362674  0.52366518  0.07792382    -0.07600
N1571       N  0.72005015  0.54499031  0.10542720    -0.63900
N1572       N  0.66382956  0.95860344  0.04191872    -0.06400
N1573       N  0.63665742  0.93673915  0.04930509    -0.64600
N1574       N  0.68103045  0.95799522  0.07288638    -0.07100
N1575       N  0.66587612  0.93618473  0.10225215    -0.64200
N1576       N  0.69647339  0.52405730  0.04669345    -0.06000
N1577       N  0.69131019  0.54589214  0.05183088    -0.64900
Mn1578     Mn  0.72806498  0.99122462  0.07338572     1.10700
C1579       C  0.70600499  0.55865572  0.08862791     0.98100
C1580       C  0.63825213  0.92300715  0.08714558     0.98200
N1581       N  0.67914285  0.95491343  0.40732671    -0.07100
N1582       N  0.66575070  0.93466980  0.37831586    -0.62500
N1583       N  0.69529023  0.52381203  0.44228625    -0.06500
N1584       N  0.69029465  0.54568302  0.43278396    -0.59200
N1585       N  0.71325001  0.52338430  0.41221982    -0.07800
N1586       N  0.72059890  0.54433809  0.38165622    -0.62100
N1587       N  0.66052120  0.95320612  0.43816182    -0.06800
N1588       N  0.63388538  0.93141457  0.43105483    -0.59300
Mn1589     Mn  0.72533188  0.98824714  0.40593364     1.20200
Mn1590     Mn  0.67536701  0.98536191  0.48983874     1.10100
Cl1591     Cl  0.72376248  0.98520470  0.48933120    -0.87200
C1592       C  0.63776295  0.92016332  0.39366521     0.95100
C1593       C  0.70647414  0.55822335  0.39486006     0.94900
C1594       C  0.71441929  0.61869210  0.21662800    -0.17700
C1595       C  0.71569227  0.60029981  0.24695222    -0.32900
H1596       H  0.71344143  0.63767842  0.22740910     0.11300
H1597       H  0.71648036  0.58121387  0.23617827     0.11900
C1598       C  0.84882583  0.75366524  0.21316788    -0.17700
C1599       C  0.86860542  0.75514030  0.24203948    -0.32900
H1600       H  0.82886496  0.75266022  0.22538371     0.11300
H1601       H  0.88859495  0.75621794  0.22979300     0.11900
C1602       C  0.86865097  0.61615798  0.22370712    -0.17700
C1603       C  0.84923003  0.59887198  0.25482767    -0.32900
H1604       H  0.88909608  0.63476050  0.23367373     0.11300
H1605       H  0.82875583  0.58028977  0.24491152     0.11900
C1606       C  0.58648493  0.72903916  0.24449271    -0.17700
C1607       C  0.60540021  0.72851635  0.21518328    -0.32900
H1608       H  0.56725601  0.72946786  0.23269686     0.11300
H1609       H  0.62455088  0.72793960  0.22700012     0.11900
C1610       C  0.60502568  0.88003796  0.25147933    -0.17700
C1611       C  0.58637220  0.86164390  0.22279014    -0.32900
H1612       H  0.62473879  0.89957706  0.23898000     0.11300
H1613       H  0.56663723  0.84212938  0.23529404     0.11900
C1614       C  0.73739841  0.88022396  0.24149325    -0.17700
C1615       C  0.73706702  0.86051037  0.21392738    -0.32900
H1616       H  0.73784278  0.89980158  0.22793516     0.11300
H1617       H  0.73681120  0.84102776  0.22749163     0.11900
C1618       C  0.74312674  0.88940250  0.60364970     0.78900
N1619       N  0.74043288  0.88609478  0.64836125    -0.79400
C1620       C  0.74086904  0.86328500  0.66947363     0.81400
N1621       N  0.74309762  0.84313574  0.64514250    -0.79300
C1622       C  0.74596779  0.84652805  0.60003778     0.81500
N1623       N  0.74640016  0.86995480  0.57941686    -0.81000
C1624       C  0.75040742  0.90457436  0.86089463     0.78900
N1625       N  0.74607358  0.90420651  0.81634101    -0.79400
C1626       C  0.74328140  0.88156476  0.79238182     0.81400
N1627       N  0.74390873  0.85885391  0.81338136    -0.79300
C1628       C  0.74810121  0.85880505  0.85751780     0.81500
N1629       N  0.75179813  0.88189196  0.88147021    -0.81000
C1630       C  0.61883875  0.90323253  0.86952138     0.78900
N1631       N  0.62253442  0.90204237  0.82524248    -0.79400
C1632       C  0.60228085  0.87957987  0.80215197     0.81400
N1633       N  0.57834764  0.85758604  0.82397909    -0.79300
C1634       C  0.57430834  0.85847797  0.86838444     0.81500
N1635       N  0.59445868  0.88158097  0.89120404    -0.81000
C1636       C  0.60934128  0.89045663  0.61205317     0.78900
N1637       N  0.60993105  0.88690383  0.65682789    -0.79400
C1638       C  0.58777832  0.86308245  0.67877507     0.81400
N1639       N  0.56560749  0.84252348  0.65543558    -0.80200
C1640       C  0.56491796  0.84601322  0.61078560     0.81500
N1641       N  0.58658574  0.87019022  0.58909445    -0.81000
C1642       C  0.56875124  0.71637742  0.60479772     0.78900
N1643       N  0.57405895  0.72182198  0.64864760    -0.79400
C1644       C  0.59875927  0.72413662  0.66650358     0.81400
N1645       N  0.61818783  0.72171411  0.64017882    -0.79300
C1646       C  0.61322629  0.71630825  0.59663910     0.81500
N1647       N  0.58829178  0.71330100  0.57880456    -0.81000
C1648       C  0.57012601  0.72407068  0.86371404     0.78900
N1649       N  0.56923203  0.72747049  0.81919839    -0.79400
C1650       C  0.59039336  0.72873160  0.79212968     0.81400
N1651       N  0.61344538  0.72753590  0.81010876    -0.79300
C1652       C  0.61456236  0.72425625  0.85493511     0.81500
N1653       N  0.59258237  0.72204888  0.88170231    -0.81000
C1654       C  0.86503701  0.61582113  0.80078648     0.78900
N1655       N  0.84273452  0.59206151  0.82300545    -0.79400
C1656       C  0.84332294  0.58878335  0.86802557     0.81400
N1657       N  0.86631589  0.60928517  0.89057841    -0.79300
C1658       C  0.88800375  0.63327797  0.86832454     0.81500
N1659       N  0.88716208  0.63638006  0.82382722    -0.81000
C1660       C  0.85242476  0.60040458  0.67690888     0.78900
N1661       N  0.87629884  0.62250354  0.65473360    -0.79400
C1662       C  0.87984454  0.62153683  0.61002122     0.81400
N1663       N  0.85938320  0.59841168  0.58767321    -0.79300
C1664       C  0.83528589  0.57687576  0.60991147     0.81500
N1665       N  0.83203541  0.57807753  0.65410197    -0.81000
C1666       C  0.85215666  0.75268860  0.66450678     0.78900
N1667       N  0.87625095  0.75391858  0.64530060    -0.79400
C1668       C  0.88055061  0.75762554  0.60041370     0.81400
N1669       N  0.86070178  0.76015156  0.57474349    -0.79300
C1670       C  0.83629111  0.75806295  0.59398395     0.81500
N1671       N  0.83219429  0.75428456  0.63857469    -0.81000
C1672       C  0.86513486  0.75525987  0.78973519     0.78900
N1673       N  0.88704099  0.75751953  0.81523049    -0.79400
C1674       C  0.88730645  0.76229254  0.85906023     0.81400
N1675       N  0.86522683  0.76485647  0.87799456    -0.79300
C1676       C  0.84257971  0.76190231  0.85284826     0.81500
N1677       N  0.84259430  0.75709994  0.80870989    -0.81000
C1678       C  0.71278802  0.60397762  0.79579865     0.78900
N1679       N  0.71101078  0.58289652  0.82420949    -0.79400
C1680       C  0.70755021  0.58406736  0.86833014     0.81400
N1681       N  0.70597107  0.60690843  0.88478046    -0.79300
C1682       C  0.70852436  0.62891027  0.85667306     0.81500
N1683       N  0.71192497  0.62744403  0.81202575    -0.81000
C1684       C  0.71191104  0.61150894  0.66879284     0.78900
N1685       N  0.71012443  0.58678017  0.65260103    -0.79400
C1686       C  0.70586952  0.58165132  0.60839856     0.81400
N1687       N  0.70333257  0.60120214  0.58071825    -0.79300
C1688       C  0.70579743  0.62599117  0.59705147     0.81500
N1689       N  0.71011879  0.63088864  0.64071506    -0.81000
N1690       N  0.74206446  0.79090626  0.88745944    -0.07400
N1691       N  0.73493358  0.80653915  0.86072185    -0.59500
N1692       N  0.79282146  0.77324768  0.91678515    -0.07100
N1693       N  0.81965340  0.77768873  0.91063100    -0.61600
N1694       N  0.77562447  0.75689619  0.88556567    -0.06700
N1695       N  0.79052972  0.75032369  0.85722938    -0.59500
N1696       N  0.75905287  0.80738191  0.91873971    -0.06400
N1697       N  0.76346063  0.83431925  0.91437267    -0.62000
C1698       C  0.74827097  0.83340950  0.87813046     0.94800
C1699       C  0.81789697  0.76335896  0.87333029     0.94600
N1700       N  0.77095391  0.74978976  0.55263660    -0.07600
N1701       N  0.78472527  0.74283346  0.58248770    -0.60100
N1702       N  0.75498735  0.80162807  0.52410298    -0.05700
N1703       N  0.76114749  0.82831995  0.53455043    -0.61300
N1704       N  0.73732399  0.78238069  0.55466122    -0.07600
N1705       N  0.73146244  0.79524689  0.58663652    -0.60400
N1706       N  0.78943280  0.76814769  0.52199081    -0.05300
N1707       N  0.81640515  0.77379300  0.53008781    -0.61400
Mn1708     Mn  0.77637180  0.79011493  0.96966476     1.18400
C1709       C  0.81288017  0.75763398  0.56790301     0.96900
C1710       C  0.74626516  0.82378154  0.57372051     0.97500
N1711       N  0.71501558  0.69644261  0.88606833    -0.07600
N1712       N  0.72170216  0.68177598  0.85784314    -0.63900
N1713       N  0.66395113  0.71271931  0.91847032    -0.06400
N1714       N  0.63702157  0.70762724  0.91264235    -0.64600
N1715       N  0.68171863  0.73051608  0.88653572    -0.07100
N1716       N  0.66708227  0.73746382  0.85786155    -0.64200
N1717       N  0.69747739  0.67858069  0.91818661    -0.06000
N1718       N  0.69230705  0.65165344  0.91289911    -0.64900
Mn1719     Mn  0.72870655  0.74382086  0.88462121     1.10700
C1720       C  0.70737516  0.65388087  0.87514177     0.98100
C1721       C  0.63930145  0.72307852  0.87472637     0.98200
N1722       N  0.67837618  0.72336623  0.55381547    -0.07100
N1723       N  0.66441152  0.72989419  0.58348693    -0.62500
N1724       N  0.69500242  0.67281506  0.52340121    -0.06500
N1725       N  0.69027095  0.64594766  0.53229391    -0.59200
N1726       N  0.71240081  0.69080961  0.55279035    -0.07800
N1727       N  0.71970864  0.67695327  0.58227006    -0.62100
N1728       N  0.66030240  0.70639584  0.52404618    -0.06800
N1729       N  0.63336956  0.70124387  0.53281453    -0.59300
Mn1730     Mn  0.72462826  0.73646958  0.55406213     1.20200
Mn1731     Mn  0.67925907  0.69367611  0.97068069     1.10100
Cl1732     Cl  0.72778710  0.74192049  0.96916611    -0.87200
C1733       C  0.63653595  0.71623703  0.57004199     0.95100
C1734       C  0.70610053  0.64920515  0.56910394     0.94900
N1735       N  0.50684913  0.78150710  0.57207195    -0.07400
N1736       N  0.52694966  0.79476727  0.60176516    -0.59500
N1737       N  0.94129318  0.76782377  0.53569310    -0.07100
N1738       N  0.91981931  0.77357018  0.54180851    -0.61600
N1739       N  0.94053215  0.74964703  0.56738029    -0.06700
N1740       N  0.91888496  0.74313427  0.59616129    -0.59500
N1741       N  0.50844357  0.80033954  0.54082114    -0.06400
N1742       N  0.53013285  0.82693706  0.54847288    -0.62000
C1743       C  0.54132852  0.82291210  0.58658579     0.94800
C1744       C  0.90613193  0.75811371  0.57967293     0.94600
N1745       N  0.94642610  0.75694192  0.90008310    -0.07600
N1746       N  0.92585790  0.74983434  0.87080534    -0.60100
N1747       N  0.51287160  0.80847364  0.93520157    -0.05700
N1748       N  0.53498772  0.83554759  0.92818443    -0.61300
N1749       N  0.51330828  0.79132153  0.90489886    -0.07600
N1750       N  0.53525708  0.80630726  0.87618023    -0.60400
N1751       N  0.94471304  0.77368876  0.92996053    -0.05300
N1752       N  0.92248784  0.77808850  0.92176160    -0.61400
Mn1753     Mn  0.97784969  0.79125767  0.98202274     1.18400
C1754       C  0.91100344  0.76291174  0.88474685     0.96900
C1755       C  0.54868053  0.83377475  0.89116968     0.97500
N1756       N  0.93945671  0.68869043  0.56942950    -0.07600
N1757       N  0.91862292  0.67384155  0.59989562    -0.63900
N1758       N  0.00717135  0.70459641  0.53813951    -0.06400
N1759       N  0.52992160  0.70041347  0.54817688    -0.64600
N1760       N  0.00635716  0.72116323  0.56922335    -0.07100
N1761       N  0.52829587  0.72809217  0.60165835    -0.64200
N1762       N  0.93906207  0.67125314  0.53876051    -0.06000
N1763       N  0.91742300  0.64413236  0.54755324    -0.64900
Mn1764     Mn  0.97334721  0.73522961  0.56928130     1.10700
C1765       C  0.90495126  0.64615966  0.58584157     0.98100
C1766       C  0.54245488  0.71474686  0.58531152     0.98200
N1767       N  0.01416828  0.73238305  0.90292123    -0.07100
N1768       N  0.53408470  0.73932358  0.87708025    -0.62500
N1769       N  0.94658935  0.67997600  0.93389528    -0.06500
N1770       N  0.92444864  0.65329121  0.92823455    -0.59200
N1771       N  0.94743859  0.69832535  0.90258840    -0.07800
N1772       N  0.92631167  0.68463157  0.87454785    -0.62100
N1773       N  0.01428597  0.71439271  0.93404529    -0.06800
N1774       N  0.53461957  0.70800867  0.92856263    -0.59300
Mn1775     Mn  0.98037528  0.74475958  0.90009961     1.20200
Mn1776     Mn  0.97945197  0.69523712  0.98559530     1.10100
Cl1777     Cl  0.97878350  0.74332478  0.98401444    -0.87200
C1778       C  0.54748321  0.72459856  0.89099690     0.95100
C1779       C  0.91210270  0.65673988  0.89109589     0.94900
N1780       N  0.73559718  0.94935189  0.57072328    -0.07400
N1781       N  0.72861488  0.92720100  0.59911966    -0.59500
N1782       N  0.78763380  0.51846641  0.54515565    -0.07100
N1783       N  0.81446936  0.54046807  0.55061830    -0.61600
N1784       N  0.76962570  0.51772976  0.57628692    -0.06700
N1785       N  0.78376585  0.53878930  0.60395841    -0.59500
N1786       N  0.75315021  0.94988190  0.53898178    -0.06400
N1787       N  0.75819470  0.92791853  0.54457906    -0.62000
C1788       C  0.74272154  0.91408581  0.58207395     0.94800
C1789       C  0.81153168  0.55282748  0.58743235     0.94600
N1790       N  0.77645801  0.52900836  0.90903817    -0.07600
N1791       N  0.79093165  0.55010098  0.87846194    -0.60100
N1792       N  0.76070276  0.96092219  0.93333778    -0.05700
N1793       N  0.76595689  0.93941041  0.92427964    -0.61300
N1794       N  0.74369482  0.96268047  0.90314860    -0.07600
N1795       N  0.73749635  0.94309334  0.87283212    -0.60400
N1796       N  0.79427616  0.52914568  0.93948597    -0.05300
N1797       N  0.82130690  0.55079815  0.93051136    -0.61400
Mn1798     Mn  0.77781337  0.99362904  0.98700414     1.18400
C1799       C  0.81881749  0.56361722  0.89230567     0.96900
C1800       C  0.75127224  0.92855811  0.88630401     0.97500
N1801       N  0.71045544  0.51959072  0.57846968    -0.07600
N1802       N  0.71732425  0.54079138  0.60646473    -0.63900
N1803       N  0.65868027  0.95016170  0.54240984    -0.06400
N1804       N  0.63158164  0.92859463  0.55060963    -0.64600
N1805       N  0.67618527  0.94988696  0.57304576    -0.07100
N1806       N  0.66146020  0.92861346  0.60309002    -0.64200
N1807       N  0.69374271  0.52083712  0.54720751    -0.06000
N1808       N  0.68930149  0.54307509  0.55283996    -0.64900
Mn1809     Mn  0.72261018  0.98287398  0.57316969     1.10700
C1810       C  0.70396040  0.55523119  0.58994831     0.98100
C1811       C  0.63379632  0.91550148  0.58859253     0.98200
N1812       N  0.68404154  0.96254816  0.90567650    -0.07100
N1813       N  0.67027542  0.94187773  0.87719459    -0.62500
N1814       N  0.69788555  0.52672134  0.94245460    -0.06500
N1815       N  0.69221215  0.54822118  0.93381945    -0.59200
N1816       N  0.71630484  0.52725651  0.91229927    -0.07800
N1817       N  0.72338382  0.54856929  0.88258433    -0.62100
N1818       N  0.66569148  0.96123727  0.93675532    -0.06800
N1819       N  0.63896376  0.93919162  0.93025905    -0.59300
Mn1820     Mn  0.73062434  0.99606132  0.90332120     1.20200
Mn1821     Mn  0.68114704  0.99421140  0.98867591     1.10100
Cl1822     Cl  0.72949055  0.99394268  0.98817611    -0.87200
C1823       C  0.64232051  0.92739900  0.89293762     0.95100
C1824       C  0.70859212  0.56164009  0.89642080     0.94900
C1825       C  0.71437226  0.61783935  0.71640233    -0.17700
C1826       C  0.71422163  0.59948550  0.74796612    -0.32900
H1827       H  0.71479039  0.63777833  0.72581557     0.11300
H1828       H  0.71363705  0.57946279  0.73858161     0.11900
C1829       C  0.84762601  0.75119262  0.71309873    -0.17700
C1830       C  0.86749762  0.75240044  0.74156701    -0.32900
H1831       H  0.82806370  0.75087577  0.72562300     0.11300
H1832       H  0.88712571  0.75286185  0.72900745     0.11900
C1833       C  0.84821138  0.59893540  0.72558453    -0.17700
C1834       C  0.86717361  0.61939044  0.75187491    -0.32900
H1835       H  0.82938442  0.57948217  0.74035341     0.11300
H1836       H  0.88607393  0.63879165  0.73714477     0.11900
C1837       C  0.58652308  0.72946807  0.74373690    -0.17700
C1838       C  0.60474121  0.72787757  0.71430886    -0.32900
H1839       H  0.56701508  0.72946508  0.73226758     0.11300
H1840       H  0.62418275  0.72777033  0.72584932     0.11900
C1841       C  0.60606644  0.88050118  0.75340997    -0.17700
C1842       C  0.58630635  0.85986544  0.72774208    -0.32900
H1843       H  0.62492180  0.89965267  0.73811797     0.11300
H1844       H  0.56739371  0.84076237  0.74301551     0.11900
C1845       C  0.74068264  0.88212174  0.74365522    -0.17700
C1846       C  0.74023200  0.86112839  0.71847233    -0.32900
H1847       H  0.74047023  0.90089343  0.72808169     0.11300
H1848       H  0.74080111  0.84253710  0.73401724     0.11900
loop_ 
_geom_bond_atom_site_label_1 
_geom_bond_atom_site_label_2 
_geom_bond_distance 
_geom_bond_site_symmetry_2 
_ccdc_geom_bond_type 
C1            N2   1.360       .  A
C1            N6   1.356       .  A
C1          C171   1.456       .  S
N2            C3   1.358       .  A
C3            N4   1.354       .  A
C3          C229   1.477       .  S
N4            C5   1.358       .  A
C5            N6   1.354       .  A
C5           C93   1.456       .  S
C7            N8   1.357       .  A
C7           N12   1.365       .  A
C7          C183   1.475       .  S
N8            C9   1.353       .  A
C9           N10   1.358       .  A
C9          C228   1.477       .  S
N10          C11   1.359       .  A
C11          N12   1.367       .  A
C11          C81   1.474       .  S
C13          N14   1.349       .  A
C13          N18   1.362       .  A
C13         C206   1.459       .  S
N14          C15   1.344       .  A
C15          N16   1.364       .  A
C15         C224   1.477       .  S
N16          C17   1.367       .  A
C17          N18   1.366       .  A
C17         C138   1.480       .  S
C19          N20   1.368       .  A
C19          N24   1.359       .  A
C19         C194   1.471       .  S
N20          C21   1.367       .  A
C21          N22   1.346       .  A
C21         C225   1.477       .  S
N22          C23   1.349       .  A
C23          N24   1.354       .  A
C23         C126   1.448       .  S
C25          N26   1.367       .  A
C25          N30   1.361       .  A
C25         C149   1.473       .  S
N26          C27   1.366       .  A
C27          N28   1.347       .  A
C27         C221   1.478       .  S
N28          C29   1.350       .  A
C29          N30   1.356       .  A
C29         C116   1.455       .  S
C31          N32   1.350       .  A
C31          N36   1.360       .  A
C31         C161   1.459       .  S
N32          C33   1.346       .  A
C33          N34   1.365       .  A
C33         C220   1.478       .  S
N34          C35   1.367       .  A
C35          N36   1.365       .  A
C35         C104   1.478       .  S
C37          N38   1.360       .  A
C37          N42   1.352       .  A
C37         C217   1.477       .  S
N38          C39   1.361       .  A
C39          N40   1.361       .  A
C39         C182   1.466       .  S
N40          C41   1.358       .  A
C41          N42   1.355       .  A
C41         C162   1.460       .  S
C43          N44   1.360       .  A
C43          N48   1.351       .  A
C43         C216   1.477       .  S
N44          C45   1.362       .  A
C45          N46   1.362       .  A
C45         C148   1.469       .  S
N46          C47   1.359       .  A
C47          N48   1.355       .  A
C47         C172   1.462       .  S
C49          N50   1.361       .  A
C49          N54   1.353       .  A
C49         C212   1.479       .  S
N50          C51   1.362       .  A
C51          N52   1.360       .  A
C51         C127   1.465       .  S
N52          C53   1.357       .  A
C53          N54   1.356       .  A
C53          C92   1.460       .  S
C55          N56   1.352       .  A
C55          N60   1.360       .  A
C55         C213   1.479       .  S
N56          C57   1.356       .  A
C57          N58   1.360       .  A
C57         C137   1.467       .  S
N58          C59   1.364       .  A
C59          N60   1.362       .  A
C59          C82   1.469       .  S
C61          N62   1.344       .  A
C61          N66   1.368       .  A
C61         C209   1.479       .  S
N62          C63   1.348       .  A
C63          N64   1.355       .  A
C63         C207   1.451       .  S
N64          C65   1.362       .  A
C65          N66   1.370       .  A
C65         C103   1.476       .  S
C67          N68   1.367       .  A
C67          N72   1.343       .  A
C67         C208   1.478       .  S
N68          C69   1.370       .  A
C69          N70   1.365       .  A
C69         C193   1.481       .  S
N70          C71   1.359       .  A
C71          N72   1.347       .  A
C71         C117   1.455       .  S
N73          N74   1.322       .  A
N73          N79   1.318       .  A
N73        Mn102   2.224       .  S
N74          C81   1.356       .  A
N75          N77   1.318       .  A
N75          N76   1.322       .  A
N75         Mn91   2.210       .  S
N76          C82   1.353       .  A
N77          N78   1.321       .  A
N77        Mn102   2.210       .  S
N78          C82   1.353       .  A
N79          N80   1.323       .  A
N79         Mn91   2.207       .  S
N80          C81   1.352       .  A
N83          N89   1.314       .  A
N83          N84   1.314       .  A
N83        Mn113   2.174       .  S
N84          C92   1.346       .  A
N85          N86   1.324       .  A
N85          N87   1.314       .  A
N85        Mn322   2.215   1_554  S
N86          C93   1.356       .  A
N87          N88   1.313       .  A
N87        Mn113   2.164       .  S
N88          C93   1.344       .  A
N89          N90   1.325       .  A
N89        Mn322   2.215   1_554  S
N90          C92   1.356       .  A
Mn91        N316   2.215       .  S
Mn91        N320   2.225       .  S
Mn91       Cl115   2.553       .  S
N94          N95   1.325       .  A
N94         N100   1.319       .  A
N94        Mn102   2.223       .  S
N95         C103   1.355       .  A
N96          N98   1.318       .  A
N96          N97   1.323       .  A
N96        Mn114   2.223       .  S
N97         C104   1.354       .  A
N98          N99   1.324       .  A
N98        Mn102   2.215       .  S
N99         C104   1.354       .  A
N100        N101   1.321       .  A
N100       Mn114   2.218       .  S
N101        C103   1.353       .  A
Mn102      Cl115   2.562       .  S
N105        N106   1.312       .  A
N105        N111   1.314       .  A
N105       Mn113   2.175       .  S
N106        C116   1.346       .  A
N107        N108   1.325       .  A
N107        N109   1.313       .  A
N107       Mn345   2.202   1_554  S
N108        C117   1.354       .  A
N109        N110   1.311       .  A
N109       Mn113   2.167       .  S
N110        C117   1.346       .  A
N111        N112   1.324       .  A
N111       Mn345   2.203   1_554  S
N112        C116   1.355       .  A
Mn113      Cl346   2.525   1_554  S
Mn114       N338   2.244       .  S
Mn114       N342   2.212       .  S
Mn114      Cl115   2.552       .  S
Cl115      Mn344   2.545       .  S
N118        N119   1.311       .  A
N118        N124   1.316       .  A
N118      Mn1071   2.170   1_455  S
N119        C126   1.345       .  A
N120        N122   1.317       .  A
N120        N121   1.320       .  A
N120       Mn367   2.202   1_554  S
N121        C127   1.351       .  A
N122        N123   1.321       .  A
N122       Mn147   2.210       .  S
N123        C127   1.353       .  A
N124        N125   1.323       .  A
N124      Mn1291   2.204   1_454  S
N125        C126   1.354       .  A
N128        N134   1.315       .  A
N128        N129   1.315       .  A
N128       Mn158   2.179       .  S
N129        C137   1.347       .  A
N130        N131   1.325       .  A
N130        N132   1.315       .  A
N130      Mn1060   2.219   1_455  S
N131        C138   1.356       .  A
N132        N133   1.323       .  A
N132      Mn1082   2.212   1_455  S
N133        C138   1.353       .  A
N134        N135   1.327       .  A
N134       Mn136   2.227       .  S
N135        C137   1.358       .  A
Mn136       N351   2.201       .  S
Mn136      N1279   2.219       .  S
Mn136      N1054   2.217       .  S
Mn136      Cl160   2.552       .  S
N139        N140   1.320       .  A
N139        N145   1.317       .  A
N139       Mn147   2.204       .  S
N140        C148   1.352       .  A
N141        N143   1.316       .  A
N141       N1066   1.322       .  A
N141       Mn390   2.210   1_554  S
N142        C149   1.354       .  A
N142       N1065   1.322       .  A
N143       N1068   1.323       .  A
N143       Mn147   2.216       .  S
N144        C149   1.353       .  A
N144       N1067   1.323       .  A
N145        N146   1.323       .  A
N145       Mn390   2.214   1_554  S
N146        C148   1.354       .  A
Mn147      N1042   2.194       .  S
Mn147      Cl391   2.548   1_554  S
N150        N156   1.315       .  A
N150       N1075   1.312       .  A
N150       Mn158   2.171       .  S
N151        C161   1.347       .  A
N151       N1074   1.312       .  A
N152        N153   1.324       .  A
N152        N154   1.315       .  A
N152       Mn159   2.207       .  S
N153        C162   1.355       .  A
N154        N155   1.315       .  A
N154       Mn158   2.183       .  S
N155        C162   1.347       .  A
N156       N1081   1.324       .  A
N156       Mn159   2.207       .  S
N157        C161   1.355       .  A
N157       N1080   1.326       .  A
Mn158      N1056   2.191       .  S
Mn158      Cl160   2.536       .  S
Mn159       N372   2.206       .  S
Mn159       N376   2.206       .  S
Mn159      Cl160   2.552       .  S
Cl160      Mn378   2.549       .  S
N163        N164   1.317       .  A
N163        N169   1.318       .  A
N163       Mn192   2.187       .  S
N164        C171   1.349       .  A
N165        N167   1.316       .  A
N165        N166   1.325       .  A
N165       Mn874   2.218   1_544  S
N166        C172   1.356       .  A
N167        N168   1.315       .  A
N167       Mn654   2.182   1_545  S
N168        C172   1.347       .  A
N169        N170   1.320       .  A
N169       Mn412   2.210   1_554  S
N170        C171   1.353       .  A
N173        N179   1.316       .  A
N173        N174   1.320       .  A
N173       Mn665   2.204   1_545  S
N174        C182   1.352       .  A
N175        N176   1.328       .  A
N175        N177   1.315       .  A
N175       Mn181   2.222       .  S
N176        C183   1.357       .  A
N177        N178   1.318       .  A
N177       Mn203   2.196       .  S
N178        C183   1.350       .  A
N179        N180   1.321       .  A
N179       Mn643   2.203   1_545  S
N180        C182   1.353       .  A
Mn181       N858   2.226       .  S
Mn181       N400   2.204       .  S
Mn181       N641   2.218       .  S
Mn181      Cl205   2.552       .  S
N184        N185   1.325       .  A
N184        N190   1.318       .  A
N184       Mn654   2.228   1_545  S
N185        C193   1.355       .  A
N186        N188   1.316       .  A
N186        N187   1.321       .  A
N186       Mn435   2.217   1_554  S
N187        C194   1.354       .  A
N188        N189   1.322       .  A
N188       Mn192   2.198       .  S
N189        C194   1.352       .  A
N190        N191   1.323       .  A
N190       Mn897   2.221   1_544  S
N191        C193   1.355       .  A
Mn192       N629   2.181       .  S
Mn192       N646   2.188       .  S
Mn192      Cl436   2.536   1_554  S
N195        N196   1.313       .  A
N195        N201   1.316       .  A
N195       Mn203   2.184       .  S
N196        C206   1.348       .  A
N197        N198   1.325       .  A
N197        N199   1.313       .  A
N197       Mn666   2.206   1_545  S
N198        C207   1.355       .  A
N199        N200   1.310       .  A
N199       Mn665   2.159   1_545  S
N200        C207   1.344       .  A
N201        N202   1.326       .  A
N201       Mn204   2.208       .  S
N202        C206   1.354       .  A
Mn203       N635   2.196       .  S
Mn203       N661   2.194       .  S
Mn203      Cl205   2.551       .  S
Mn204       N417   2.236       .  S
Mn204       N883   2.228       .  S
Mn204       N659   2.256       .  S
Mn204      Cl205   2.554       .  S
Cl205      Mn423   2.557       .  S
C208        C209   1.330       .  D
C208        H210   1.087       .  S
C209        H211   1.087       .  S
C212        C213   1.341       .  D
C212        H214   1.087       .  S
C213        H215   1.086       .  S
C216        C217   1.340       .  D
C216        H218   1.086       .  S
C217        H219   1.086       .  S
C220        C221   1.333       .  D
C220        H222   1.087       .  S
C221        H223   1.087       .  S
C224        C225   1.332       .  D
C224        H226   1.087       .  S
C225        H227   1.087       .  S
C228        C229   1.343       .  D
C228        H230   1.086       .  S
C229        H231   1.086       .  S
C232        N233   1.358       .  A
C232        N237   1.365       .  A
C232        C402   1.472       .  S
N233        C234   1.358       .  A
C234        N235   1.355       .  A
C234        C460   1.477       .  S
N235        C236   1.357       .  A
C236        N237   1.363       .  A
C236        C324   1.473       .  S
C238        N239   1.359       .  A
C238        N243   1.356       .  A
C238        C414   1.462       .  S
N239        C240   1.354       .  A
C240        N241   1.357       .  A
C240        C459   1.478       .  S
N241        C242   1.359       .  A
C242        N243   1.359       .  A
C242        C312   1.459       .  S
C244        N245   1.355       .  A
C244        N249   1.356       .  A
C244        C437   1.453       .  S
N245        C246   1.352       .  A
C246        N247   1.361       .  A
C246        C455   1.478       .  S
N247        C248   1.363       .  A
C248        N249   1.356       .  A
C248        C369   1.464       .  S
C250        N251   1.363       .  A
C250        N255   1.363       .  A
C250        C425   1.474       .  S
N251        C252   1.360       .  A
C252        N253   1.351       .  A
C252        C456   1.478       .  S
N253        C254   1.354       .  A
C254        N255   1.363       .  A
C254        C357   1.464       .  S
C256        N257   1.368       .  A
C256        N261   1.364       .  A
C256        C380   1.475       .  S
N257        C258   1.364       .  A
C258        N259   1.344       .  A
C258        C452   1.477       .  S
N259        C260   1.349       .  A
C260        N261   1.358       .  A
C260        C347   1.456       .  S
C262        N263   1.350       .  A
C262        N267   1.356       .  A
C262        C392   1.453       .  S
N263        C264   1.347       .  A
C264        N265   1.366       .  A
C264        C451   1.477       .  S
N265        C266   1.367       .  A
C266        N267   1.361       .  A
C266        C335   1.472       .  S
C268        N269   1.357       .  A
C268        N273   1.354       .  A
C268        C448   1.477       .  S
N269        C270   1.359       .  A
C270        N271   1.361       .  A
C270        C413   1.464       .  S
N271        C272   1.360       .  A
C272        N273   1.357       .  A
C272        C393   1.464       .  S
C274        N275   1.357       .  A
C274        N279   1.355       .  A
C274        C447   1.478       .  S
N275        C276   1.359       .  A
C276        N277   1.361       .  A
C276        C379   1.464       .  S
N277        C278   1.359       .  A
C278        N279   1.358       .  A
C278        C403   1.465       .  S
C280        N281   1.359       .  A
C280        N285   1.353       .  A
C280        C443   1.478       .  S
N281        C282   1.360       .  A
C282        N283   1.362       .  A
C282        C358   1.464       .  S
N283        C284   1.358       .  A
C284        N285   1.357       .  A
C284        C323   1.464       .  S
C286        N287   1.353       .  A
C286        N291   1.359       .  A
C286        C444   1.478       .  S
N287        C288   1.357       .  A
C288        N289   1.359       .  A
C288        C368   1.466       .  S
N289        C290   1.363       .  A
C290        N291   1.360       .  A
C290        C313   1.466       .  S
C292        N293   1.369       .  A
C292        N297   1.342       .  A
C292        C440   1.478       .  S
N293        C294   1.371       .  A
C294        N295   1.362       .  A
C294        C438   1.482       .  S
N295        C296   1.359       .  A
C296        N297   1.346       .  A
C296        C334   1.449       .  S
C298        N299   1.342       .  A
C298        N303   1.368       .  A
C298        C439   1.477       .  S
N299        C300   1.345       .  A
C300        N301   1.359       .  A
C300        C424   1.447       .  S
N301        C302   1.362       .  A
C302        N303   1.372       .  A
C302        C348   1.481       .  S
N304        N305   1.318       .  A
N304        N310   1.318       .  A
N304       Mn333   2.194       .  S
N305        C312   1.350       .  A
N306        N308   1.316       .  A
N306        N307   1.321       .  A
N306       Mn322   2.199       .  S
N307        C313   1.351       .  A
N308        N309   1.321       .  A
N308       Mn333   2.210       .  S
N309        C313   1.353       .  A
N310        N311   1.321       .  A
N310       Mn322   2.208       .  S
N311        C312   1.352       .  A
N314        N320   1.315       .  A
N314        N315   1.315       .  A
N314       Mn344   2.176       .  S
N315        C323   1.347       .  A
N316        N317   1.326       .  A
N316        N318   1.314       .  A
N317        C324   1.356       .  A
N318        N319   1.319       .  A
N318       Mn344   2.199       .  S
N319        C324   1.351       .  A
N320        N321   1.326       .  A
N321        C323   1.357       .  A
Mn322      Cl346   2.549       .  S
N325        N326   1.314       .  A
N325        N331   1.315       .  A
N325       Mn333   2.191       .  S
N326        C334   1.350       .  A
N327        N329   1.317       .  A
N327        N328   1.321       .  A
N327       Mn345   2.207       .  S
N328        C335   1.352       .  A
N329        N330   1.324       .  A
N329       Mn333   2.218       .  S
N330        C335   1.355       .  A
N331        N332   1.321       .  A
N331       Mn345   2.181       .  S
N332        C334   1.349       .  A
Mn333      Cl346   2.543       .  S
N336        N337   1.310       .  A
N336        N342   1.315       .  A
N336       Mn344   2.169       .  S
N337        C347   1.345       .  A
N338        N339   1.327       .  A
N338        N340   1.317       .  A
N339        C348   1.360       .  A
N340        N341   1.321       .  A
N340       Mn344   2.196       .  S
N341        C348   1.349       .  A
N342        N343   1.326       .  A
N343        C347   1.356       .  A
Mn345      Cl346   2.553       .  S
N349        N350   1.318       .  A
N349        N355   1.317       .  A
N349      Mn1302   2.204   1_455  S
N350        C357   1.352       .  A
N351        N353   1.317       .  A
N351        N352   1.321       .  A
N352        C358   1.351       .  A
N353        N354   1.320       .  A
N353       Mn378   2.208       .  S
N354        C358   1.353       .  A
N355        N356   1.323       .  A
N355      Mn1060   2.202   1_455  S
N356        C357   1.352       .  A
N359        N365   1.315       .  A
N359        N360   1.314       .  A
N359       Mn389   2.172       .  S
N360        C368   1.346       .  A
N361        N362   1.324       .  A
N361        N363   1.315       .  A
N361      Mn1291   2.224   1_455  S
N362        C369   1.357       .  A
N363        N364   1.317       .  A
N363      Mn1313   2.176   1_455  S
N364        C369   1.346       .  A
N365        N366   1.327       .  A
N365       Mn367   2.231       .  S
N366        C368   1.359       .  A
Mn367      N1048   2.214   1_556  S
Mn367      N1285   2.209       .  S
Mn367      Cl391   2.555       .  S
N370        N371   1.319       .  A
N370        N376   1.316       .  A
N370       Mn378   2.196       .  S
N371        C379   1.351       .  A
N372        N374   1.316       .  A
N372       N1297   1.321       .  A
N373        C380   1.355       .  A
N373       N1296   1.324       .  A
N374       N1299   1.323       .  A
N374       Mn378   2.217       .  S
N375        C380   1.352       .  A
N375       N1298   1.322       .  A
N376        N377   1.322       .  A
N377        C379   1.353       .  A
Mn378      N1273   2.183       .  S
N381       N1306   1.311       .  A
N381        N387   1.315       .  A
N381       Mn389   2.163       .  S
N382        C392   1.347       .  A
N382       N1305   1.313       .  A
N383        N384   1.325       .  A
N383        N385   1.316       .  A
N383       Mn390   2.212       .  S
N384        C393   1.355       .  A
N385        N386   1.316       .  A
N385       Mn389   2.189       .  S
N386        C393   1.348       .  A
N387       N1312   1.325       .  A
N387       Mn390   2.215       .  S
N388        C392   1.353       .  A
N388       N1311   1.323       .  A
Mn389      N1287   2.199       .  S
Mn389      Cl391   2.534       .  S
Mn390      Cl391   2.554       .  S
N394        N395   1.322       .  A
N394        N400   1.317       .  A
N394       Mn423   2.223       .  S
N395        C402   1.355       .  A
N396        N398   1.316       .  A
N396        N397   1.325       .  A
N396       Mn643   2.219   1_545  S
N397        C403   1.356       .  A
N398        N399   1.316       .  A
N398       Mn885   2.188   1_545  S
N399        C403   1.348       .  A
N400        N401   1.322       .  A
N401        C402   1.351       .  A
N404        N410   1.316       .  A
N404        N405   1.318       .  A
N404       Mn896   2.195   1_545  S
N405        C413   1.351       .  A
N406        N407   1.326       .  A
N406        N408   1.315       .  A
N406       Mn412   2.226       .  S
N407        C414   1.358       .  A
N408        N409   1.314       .  A
N408       Mn434   2.167       .  S
N409        C414   1.345       .  A
N410        N411   1.322       .  A
N410       Mn874   2.209   1_545  S
N411        C413   1.353       .  A
Mn412       N627   2.209   1_556  S
Mn412       N872   2.209       .  S
Mn412      Cl436   2.551       .  S
N415        N416   1.313       .  A
N415        N421   1.314       .  A
N415       Mn885   2.187   1_545  S
N416        C424   1.350       .  A
N417        N419   1.316       .  A
N417        N418   1.327       .  A
N418        C425   1.358       .  A
N419        N420   1.319       .  A
N419       Mn423   2.190       .  S
N420        C425   1.349       .  A
N421        N422   1.321       .  A
N421       Mn666   2.175   1_545  S
N422        C424   1.349       .  A
Mn423       N860   2.186       .  S
Mn423       N877   2.221       .  S
N426        N427   1.316       .  A
N426        N432   1.316       .  A
N426       Mn434   2.191       .  S
N427        C437   1.349       .  A
N428        N429   1.326       .  A
N428        N430   1.317       .  A
N428       Mn897   2.244   1_545  S
N429        C438   1.359       .  A
N430        N431   1.322       .  A
N430       Mn896   2.199   1_545  S
N431        C438   1.351       .  A
N432        N433   1.320       .  A
N432       Mn435   2.189       .  S
N433        C437   1.351       .  A
Mn434       N866   2.194       .  S
Mn434       N892   2.168       .  S
Mn434      Cl436   2.530       .  S
Mn435       N652   2.171   1_556  S
Mn435       N890   2.202       .  S
Mn435      Cl436   2.552       .  S
C439        C440   1.328       .  D
C439        H441   1.087       .  S
C440        H442   1.087       .  S
C443        C444   1.342       .  D
C443        H445   1.086       .  S
C444        H446   1.086       .  S
C447        C448   1.344       .  D
C447        H449   1.086       .  S
C448        H450   1.086       .  S
C451        C452   1.332       .  D
C451        H453   1.087       .  S
C452        H454   1.087       .  S
C455        C456   1.340       .  D
C455        H457   1.087       .  S
C456        H458   1.087       .  S
C459        C460   1.344       .  D
C459        H461   1.086       .  S
C460        H462   1.086       .  S
C463        N464   1.359       .  A
C463        N468   1.366       .  A
C463        C633   1.473       .  S
N464        C465   1.358       .  A
C465        N466   1.355       .  A
C465        C691   1.478       .  S
N466        C467   1.358       .  A
C467        N468   1.364       .  A
C467        C555   1.475       .  S
C469        N470   1.358       .  A
C469        N474   1.355       .  A
C469        C645   1.458       .  S
N470        C471   1.354       .  A
C471        N472   1.357       .  A
C471        C690   1.478       .  S
N472        C473   1.359       .  A
C473        N474   1.358       .  A
C473        C543   1.456       .  S
C475        N476   1.350       .  A
C475        N480   1.362       .  A
C475        C668   1.459       .  S
N476        C477   1.346       .  A
C477        N478   1.366       .  A
C477        C686   1.478       .  S
N478        C479   1.367       .  A
C479        N480   1.364       .  A
C479        C600   1.482       .  S
C481        N482   1.368       .  A
C481        N486   1.360       .  A
C481        C656   1.471       .  S
N482        C483   1.365       .  A
C483        N484   1.345       .  A
C483        C687   1.477       .  S
N484        C485   1.349       .  A
C485        N486   1.356       .  A
C485        C588   1.448       .  S
C487        N488   1.365       .  A
C487        N492   1.364       .  A
C487        C611   1.472       .  S
N488        C489   1.363       .  A
C489        N490   1.347       .  A
C489        C683   1.478       .  S
N490        C491   1.352       .  A
C491        N492   1.358       .  A
C491        C578   1.460       .  S
C493        N494   1.352       .  A
C493        N498   1.357       .  A
C493        C623   1.460       .  S
N494        C495   1.348       .  A
C495        N496   1.364       .  A
C495        C682   1.478       .  S
N496        C497   1.365       .  A
C497        N498   1.363       .  A
C497        C566   1.471       .  S
C499        N500   1.362       .  A
C499        N504   1.350       .  A
C499        C679   1.479       .  S
N500        C501   1.364       .  A
C501        N502   1.361       .  A
C501        C644   1.468       .  S
N502        C503   1.357       .  A
C503        N504   1.353       .  A
C503        C624   1.457       .  S
C505        N506   1.363       .  A
C505        N510   1.350       .  A
C505        C678   1.478       .  S
N506        C507   1.365       .  A
C507        N508   1.362       .  A
C507        C610   1.473       .  S
N508        C509   1.359       .  A
C509        N510   1.353       .  A
C509        C634   1.460       .  S
C511        N512   1.361       .  A
C511        N516   1.351       .  A
C511        C674   1.478       .  S
N512        C513   1.362       .  A
C513        N514   1.360       .  A
C513        C589   1.465       .  S
N514        C515   1.357       .  A
C515        N516   1.355       .  A
C515        C554   1.458       .  S
C517        N518   1.350       .  A
C517        N522   1.361       .  A
C517        C675   1.478       .  S
N518        C519   1.355       .  A
C519        N520   1.358       .  A
C519        C599   1.461       .  S
N520        C521   1.362       .  A
C521        N522   1.363       .  A
C521        C544   1.467       .  S
C523        N524   1.370       .  A
C523        N528   1.341       .  A
C523        C671   1.477       .  S
N524        C525   1.373       .  A
C525        N526   1.361       .  A
C525        C669   1.483       .  S
N526        C527   1.358       .  A
C527        N528   1.344       .  A
C527        C565   1.445       .  S
C529        N530   1.340       .  A
C529        N534   1.368       .  A
C529        C670   1.477       .  S
N530        C531   1.345       .  A
C531        N532   1.360       .  A
C531        C655   1.446       .  S
N532        C533   1.362       .  A
C533        N534   1.372       .  A
C533        C579   1.482       .  S
N535        N536   1.318       .  A
N535        N541   1.318       .  A
N535       Mn564   2.192       .  S
N536        C543   1.350       .  A
N537        N539   1.317       .  A
N537        N538   1.321       .  A
N537       Mn553   2.207       .  S
N538        C544   1.352       .  A
N539        N540   1.321       .  A
N539       Mn564   2.206       .  S
N540        C544   1.352       .  A
N541        N542   1.320       .  A
N541       Mn553   2.205       .  S
N542        C543   1.351       .  A
N545        N551   1.314       .  A
N545        N546   1.314       .  A
N545       Mn575   2.170       .  S
N546        C554   1.346       .  A
N547        N548   1.327       .  A
N547        N549   1.314       .  A
N547       Mn784   2.220   1_554  S
N548        C555   1.357       .  A
N549        N550   1.318       .  A
N549       Mn575   2.198       .  S
N550        C555   1.351       .  A
N551        N552   1.325       .  A
N551       Mn784   2.216   1_554  S
N552        C554   1.356       .  A
Mn553       N778   2.223       .  S
Mn553       N782   2.217       .  S
Mn553      Cl577   2.549       .  S
N556        N557   1.314       .  A
N556        N562   1.314       .  A
N556       Mn564   2.193       .  S
N557        C565   1.351       .  A
N558        N560   1.316       .  A
N558        N559   1.320       .  A
N558       Mn576   2.200       .  S
N559        C566   1.351       .  A
N560        N561   1.324       .  A
N560       Mn564   2.219       .  S
N561        C566   1.355       .  A
N562        N563   1.319       .  A
N562       Mn576   2.167       .  S
N563        C565   1.347       .  A
Mn564      Cl577   2.542       .  S
N567        N568   1.310       .  A
N567        N573   1.315       .  A
N567       Mn575   2.160       .  S
N568        C578   1.343       .  A
N569        N570   1.328       .  A
N569        N571   1.317       .  A
N569       Mn807   2.250   1_554  S
N570        C579   1.362       .  A
N571        N572   1.320       .  A
N571       Mn575   2.191       .  S
N572        C579   1.348       .  A
N573        N574   1.328       .  A
N573       Mn807   2.227   1_554  S
N574        C578   1.358       .  A
Mn575      Cl808   2.544   1_554  S
Mn576       N800   2.201       .  S
Mn576       N804   2.186       .  S
Mn576      Cl577   2.553       .  S
Cl577      Mn806   2.523       .  S
N580        N581   1.311       .  A
N580        N586   1.316       .  A
N580      Mn1533   2.172   1_455  S
N581        C588   1.346       .  A
N582        N584   1.318       .  A
N582        N583   1.321       .  A
N582       Mn829   2.207   1_554  S
N583        C589   1.352       .  A
N584        N585   1.321       .  A
N584       Mn609   2.206       .  S
N585        C589   1.352       .  A
N586        N587   1.322       .  A
N586      Mn1753   2.200   1_454  S
N587        C588   1.352       .  A
N590        N596   1.314       .  A
N590        N591   1.313       .  A
N590       Mn620   2.169       .  S
N591        C599   1.345       .  A
N592        N593   1.325       .  A
N592        N594   1.315       .  A
N592      Mn1522   2.224   1_455  S
N593        C600   1.357       .  A
N594        N595   1.323       .  A
N594      Mn1544   2.212   1_455  S
N595        C600   1.353       .  A
N596        N597   1.326       .  A
N596       Mn598   2.220       .  S
N597        C599   1.358       .  A
Mn598       N813   2.209       .  S
Mn598      N1741   2.215       .  S
Mn598      N1516   2.229       .  S
Mn598      Cl622   2.552       .  S
N601        N602   1.321       .  A
N601        N607   1.317       .  A
N601       Mn609   2.206       .  S
N602        C610   1.352       .  A
N603        N605   1.316       .  A
N603       N1528   1.322       .  A
N603       Mn852   2.207   1_554  S
N604        C611   1.352       .  A
N604       N1527   1.321       .  A
N605       N1530   1.323       .  A
N605       Mn609   2.216       .  S
N606        C611   1.355       .  A
N606       N1529   1.323       .  A
N607        N608   1.323       .  A
N607       Mn852   2.222   1_554  S
N608        C610   1.355       .  A
Mn609      N1504   2.196       .  S
Mn609      Cl853   2.547   1_554  S
N612       N1537   1.312       .  A
N612        N618   1.316       .  A
N612       Mn620   2.167       .  S
N613        C623   1.344       .  A
N613       N1536   1.311       .  A
N614        N615   1.324       .  A
N614        N616   1.315       .  A
N614       Mn621   2.207       .  S
N615        C624   1.355       .  A
N616        N617   1.313       .  A
N616       Mn620   2.176       .  S
N617        C624   1.346       .  A
N618       N1543   1.326       .  A
N618       Mn621   2.223       .  S
N619        C623   1.358       .  A
N619       N1542   1.327       .  A
Mn620      N1518   2.189       .  S
Mn620      Cl622   2.534       .  S
Mn621       N834   2.208       .  S
Mn621       N838   2.217       .  S
Mn621      Cl622   2.555       .  S
Cl622      Mn840   2.549       .  S
N625        N626   1.323       .  A
N625        N631   1.317       .  A
N625       Mn654   2.227       .  S
N626        C633   1.356       .  A
N627        N629   1.315       .  A
N627        N628   1.325       .  A
N628        C634   1.355       .  A
N629        N630   1.314       .  A
N630        C634   1.347       .  A
N631        N632   1.322       .  A
N631       Mn874   2.201   1_554  S
N632        C633   1.351       .  A
N635        N641   1.317       .  A
N635        N636   1.320       .  A
N636        C644   1.351       .  A
N637        N638   1.325       .  A
N637        N639   1.315       .  A
N637       Mn643   2.226       .  S
N638        C645   1.358       .  A
N639        N640   1.312       .  A
N639       Mn665   2.157       .  S
N640        C645   1.343       .  A
N641        N642   1.322       .  A
N642        C644   1.354       .  A
Mn643       N862   2.200       .  S
Mn643      Cl667   2.548       .  S
N646        N647   1.313       .  A
N646        N652   1.314       .  A
N647        C655   1.350       .  A
N648        N650   1.316       .  A
N648        N649   1.324       .  A
N648       Mn897   2.235   1_554  S
N649        C656   1.357       .  A
N650        N651   1.320       .  A
N650       Mn654   2.184       .  S
N651        C656   1.349       .  A
N652        N653   1.320       .  A
N653        C655   1.348       .  A
Mn654      Cl898   2.556   1_554  S
N657        N658   1.316       .  A
N657        N663   1.315       .  A
N657       Mn665   2.202       .  S
N658        C668   1.351       .  A
N659        N660   1.328       .  A
N659        N661   1.318       .  A
N660        C669   1.361       .  A
N661        N662   1.322       .  A
N662        C669   1.349       .  A
N663        N664   1.323       .  A
N663       Mn666   2.187       .  S
N664        C668   1.351       .  A
Mn665      Cl667   2.529       .  S
Mn666       N879   2.212       .  S
Mn666      Cl667   2.555       .  S
Cl667      Mn885   2.536       .  S
C670        C671   1.327       .  D
C670        H672   1.087       .  S
C671        H673   1.087       .  S
C674        C675   1.339       .  D
C674        H676   1.087       .  S
C675        H677   1.087       .  S
C678        C679   1.338       .  D
C678        H680   1.087       .  S
C679        H681   1.087       .  S
C682        C683   1.335       .  D
C682        H684   1.087       .  S
C683        H685   1.087       .  S
C686        C687   1.333       .  D
C686        H688   1.087       .  S
C687        H689   1.087       .  S
C690        C691   1.344       .  D
C690        H692   1.086       .  S
C691        H693   1.086       .  S
C694        N695   1.358       .  A
C694        N699   1.356       .  A
C694        C864   1.454       .  S
N695        C696   1.358       .  A
C696        N697   1.355       .  A
C696        C922   1.478       .  S
N697        C698   1.359       .  A
C698        N699   1.354       .  A
C698        C786   1.458       .  S
C700        N701   1.358       .  A
C700        N705   1.364       .  A
C700        C876   1.475       .  S
N701        C702   1.354       .  A
C702        N703   1.357       .  A
C702        C921   1.477       .  S
N703        C704   1.358       .  A
C704        N705   1.367       .  A
C704        C774   1.472       .  S
C706        N707   1.356       .  A
C706        N711   1.358       .  A
C706        C899   1.460       .  S
N707        C708   1.352       .  A
C708        N709   1.360       .  A
C708        C917   1.479       .  S
N709        C710   1.362       .  A
C710        N711   1.360       .  A
C710        C831   1.465       .  S
C712        N713   1.362       .  A
C712        N717   1.361       .  A
C712        C887   1.468       .  S
N713        C714   1.360       .  A
C714        N715   1.353       .  A
C714        C918   1.479       .  S
N715        C716   1.356       .  A
C716        N717   1.359       .  A
C716        C819   1.462       .  S
C718        N719   1.368       .  A
C718        N723   1.362       .  A
C718        C842   1.474       .  S
N719        C720   1.366       .  A
C720        N721   1.344       .  A
C720        C914   1.475       .  S
N721        C722   1.348       .  A
C722        N723   1.357       .  A
C722        C809   1.451       .  S
C724        N725   1.348       .  A
C724        N729   1.356       .  A
C724        C854   1.451       .  S
N725        C726   1.345       .  A
C726        N727   1.366       .  A
C726        C913   1.476       .  S
N727        C728   1.367       .  A
C728        N729   1.361       .  A
C728        C797   1.473       .  S
C730        N731   1.358       .  A
C730        N735   1.355       .  A
C730        C910   1.479       .  S
N731        C732   1.359       .  A
C732        N733   1.360       .  A
C732        C875   1.465       .  S
N733        C734   1.359       .  A
C734        N735   1.358       .  A
C734        C855   1.464       .  S
C736        N737   1.358       .  A
C736        N741   1.355       .  A
C736        C909   1.480       .  S
N737        C738   1.360       .  A
C738        N739   1.361       .  A
C738        C841   1.467       .  S
N739        C740   1.360       .  A
C740        N741   1.359       .  A
C740        C865   1.468       .  S
C742        N743   1.361       .  A
C742        N747   1.353       .  A
C742        C905   1.478       .  S
N743        C744   1.361       .  A
C744        N745   1.362       .  A
C744        C820   1.469       .  S
N745        C746   1.359       .  A
C746        N747   1.356       .  A
C746        C785   1.464       .  S
C748        N749   1.351       .  A
C748        N753   1.359       .  A
C748        C906   1.477       .  S
N749        C750   1.355       .  A
C750        N751   1.358       .  A
C750        C830   1.462       .  S
N751        C752   1.362       .  A
C752        N753   1.362       .  A
C752        C775   1.466       .  S
C754        N755   1.344       .  A
C754        N759   1.369       .  A
C754        C902   1.480       .  S
N755        C756   1.347       .  A
C756        N757   1.357       .  A
C756        C900   1.454       .  S
N757        C758   1.363       .  A
C758        N759   1.371       .  A
C758        C796   1.480       .  S
C760        N761   1.368       .  A
C760        N765   1.343       .  A
C760        C901   1.480       .  S
N761        C762   1.371       .  A
C762        N763   1.364       .  A
C762        C886   1.480       .  S
N763        C764   1.358       .  A
C764        N765   1.348       .  A
C764        C810   1.454       .  S
N766        N767   1.322       .  A
N766        N772   1.318       .  A
N766       Mn795   2.225       .  S
N767        C774   1.355       .  A
N768        N770   1.317       .  A
N768        N769   1.321       .  A
N768       Mn784   2.206       .  S
N769        C775   1.352       .  A
N770        N771   1.320       .  A
N770       Mn795   2.207       .  S
N771        C775   1.352       .  A
N772        N773   1.323       .  A
N772       Mn784   2.202       .  S
N773        C774   1.351       .  A
N776        N782   1.314       .  A
N776        N777   1.315       .  A
N776       Mn806   2.180       .  S
N777        C785   1.347       .  A
N778        N779   1.325       .  A
N778        N780   1.314       .  A
N779        C786   1.357       .  A
N780        N781   1.314       .  A
N780       Mn806   2.163       .  S
N781        C786   1.344       .  A
N782        N783   1.326       .  A
N783        C785   1.357       .  A
Mn784      Cl808   2.554       .  S
N787        N788   1.325       .  A
N787        N793   1.319       .  A
N787       Mn795   2.226       .  S
N788        C796   1.355       .  A
N789        N791   1.318       .  A
N789        N790   1.323       .  A
N789       Mn807   2.227       .  S
N790        C797   1.355       .  A
N791        N792   1.323       .  A
N791       Mn795   2.206       .  S
N792        C797   1.352       .  A
N793        N794   1.322       .  A
N793       Mn807   2.226       .  S
N794        C796   1.355       .  A
Mn795      Cl808   2.561       .  S
N798        N799   1.312       .  A
N798        N804   1.314       .  A
N798       Mn806   2.181       .  S
N799        C809   1.348       .  A
N800        N801   1.325       .  A
N800        N802   1.312       .  A
N801        C810   1.355       .  A
N802        N803   1.310       .  A
N802       Mn806   2.162       .  S
N803        C810   1.345       .  A
N804        N805   1.323       .  A
N805        C809   1.352       .  A
Mn807      Cl808   2.551       .  S
N811        N812   1.316       .  A
N811        N817   1.317       .  A
N811      Mn1764   2.189   1_455  S
N812        C819   1.348       .  A
N813        N815   1.318       .  A
N813        N814   1.322       .  A
N814        C820   1.352       .  A
N815        N816   1.322       .  A
N815       Mn840   2.213       .  S
N816        C820   1.353       .  A
N817        N818   1.324       .  A
N817      Mn1522   2.213   1_455  S
N818        C819   1.354       .  A
N821        N827   1.314       .  A
N821        N822   1.313       .  A
N821       Mn851   2.170       .  S
N822        C830   1.345       .  A
N823        N824   1.323       .  A
N823        N825   1.315       .  A
N823      Mn1753   2.217   1_455  S
N824        C831   1.355       .  A
N825        N826   1.318       .  A
N825      Mn1775   2.182   1_455  S
N826        C831   1.349       .  A
N827        N828   1.326       .  A
N827       Mn829   2.219       .  S
N828        C830   1.358       .  A
Mn829      N1510   2.196   1_556  S
Mn829      N1747   2.216       .  S
Mn829      Cl853   2.555       .  S
N832        N833   1.318       .  A
N832        N838   1.316       .  A
N832       Mn840   2.193       .  S
N833        C841   1.350       .  A
N834        N836   1.317       .  A
N834       N1759   1.322       .  A
N835        C842   1.355       .  A
N835       N1758   1.323       .  A
N836       N1761   1.322       .  A
N836       Mn840   2.217       .  S
N837        C842   1.352       .  A
N837       N1760   1.322       .  A
N838        N839   1.324       .  A
N839        C841   1.354       .  A
Mn840      N1735   2.180       .  S
N843       N1768   1.312       .  A
N843        N849   1.315       .  A
N843       Mn851   2.163       .  S
N844        C854   1.348       .  A
N844       N1767   1.313       .  A
N845        N846   1.324       .  A
N845        N847   1.316       .  A
N845       Mn852   2.214       .  S
N846        C855   1.356       .  A
N847        N848   1.316       .  A
N847       Mn851   2.185       .  S
N848        C855   1.348       .  A
N849       N1774   1.325       .  A
N849       Mn852   2.220       .  S
N850        C854   1.352       .  A
N850       N1773   1.322       .  A
Mn851      N1749   2.194       .  S
Mn851      Cl853   2.534       .  S
Mn852      Cl853   2.552       .  S
N856        N857   1.318       .  A
N856        N862   1.317       .  A
N856       Mn885   2.187       .  S
N857        C864   1.349       .  A
N858        N860   1.317       .  A
N858        N859   1.325       .  A
N859        C865   1.357       .  A
N860        N861   1.317       .  A
N861        C865   1.348       .  A
N862        N863   1.319       .  A
N863        C864   1.351       .  A
N866        N872   1.315       .  A
N866        N867   1.319       .  A
N867        C875   1.351       .  A
N868        N869   1.328       .  A
N868        N870   1.315       .  A
N868       Mn874   2.224       .  S
N869        C876   1.358       .  A
N870        N871   1.317       .  A
N870       Mn896   2.196       .  S
N871        C876   1.350       .  A
N872        N873   1.323       .  A
N873        C875   1.354       .  A
Mn874      Cl898   2.554       .  S
N877        N878   1.324       .  A
N877        N883   1.319       .  A
N878        C886   1.354       .  A
N879        N881   1.316       .  A
N879        N880   1.323       .  A
N880        C887   1.354       .  A
N881        N882   1.320       .  A
N881       Mn885   2.198       .  S
N882        C887   1.351       .  A
N883        N884   1.324       .  A
N884        C886   1.356       .  A
N888        N889   1.315       .  A
N888        N894   1.316       .  A
N888       Mn896   2.182       .  S
N889        C899   1.347       .  A
N890        N891   1.325       .  A
N890        N892   1.314       .  A
N891        C900   1.354       .  A
N892        N893   1.311       .  A
N893        C900   1.346       .  A
N894        N895   1.324       .  A
N894       Mn897   2.217       .  S
N895        C899   1.355       .  A
Mn896      Cl898   2.551       .  S
Mn897      Cl898   2.550       .  S
C901        C902   1.330       .  D
C901        H903   1.087       .  S
C902        H904   1.087       .  S
C905        C906   1.341       .  D
C905        H907   1.087       .  S
C906        H908   1.087       .  S
C909        C910   1.345       .  D
C909        H911   1.086       .  S
C910        H912   1.086       .  S
C913        C914   1.331       .  D
C913        H915   1.087       .  S
C914        H916   1.087       .  S
C917        C918   1.342       .  D
C917        H919   1.086       .  S
C918        H920   1.086       .  S
C921        C922   1.344       .  D
C921        H923   1.087       .  S
C922        H924   1.087       .  S
C925        N926   1.359       .  A
C925        N930   1.360       .  A
C925       C1095   1.462       .  S
N926        C927   1.358       .  A
C927        N928   1.354       .  A
C927       C1153   1.478       .  S
N928        C929   1.358       .  A
C929        N930   1.358       .  A
C929       C1017   1.463       .  S
C931        N932   1.358       .  A
C931        N936   1.361       .  A
C931       C1107   1.470       .  S
N932        C933   1.355       .  A
C933        N934   1.358       .  A
C933       C1152   1.478       .  S
N934        C935   1.359       .  A
C935        N936   1.364       .  A
C935       C1005   1.469       .  S
C937        N938   1.353       .  A
C937        N942   1.356       .  A
C937       C1130   1.455       .  S
N938        C939   1.349       .  A
C939        N940   1.363       .  A
C939       C1148   1.479       .  S
N940        C941   1.365       .  A
C941        N942   1.360       .  A
C941       C1062   1.468       .  S
C943        N944   1.364       .  A
C943        N948   1.366       .  A
C943       C1118   1.477       .  S
N944        C945   1.363       .  A
C945        N946   1.349       .  A
C945       C1149   1.479       .  S
N946        C947   1.353       .  A
C947        N948   1.362       .  A
C947       C1050   1.465       .  S
C949        N950   1.365       .  A
C949        N954   1.364       .  A
C949       C1073   1.474       .  S
N950        C951   1.364       .  A
C951        N952   1.348       .  A
C951       C1145   1.477       .  S
N952        C953   1.351       .  A
C953        N954   1.359       .  A
C953       C1040   1.460       .  S
C955        N956   1.352       .  A
C955        N960   1.357       .  A
C955       C1085   1.454       .  S
N956        C957   1.348       .  A
C957        N958   1.363       .  A
C957       C1144   1.477       .  S
N958        C959   1.365       .  A
C959        N960   1.361       .  A
C959       C1028   1.469       .  S
C961        N962   1.339       .  A
C961        N966   1.373       .  A
C961       C1141   1.480       .  S
N962        C963   1.342       .  A
C963        N964   1.356       .  A
C963       C1106   1.444       .  S
N964        C965   1.362       .  A
C965        N966   1.376       .  A
C965       C1086   1.485       .  S
C967        N968   1.338       .  A
C967        N972   1.372       .  A
C967       C1140   1.480       .  S
N968        C969   1.343       .  A
C969        N970   1.356       .  A
C969       C1072   1.444       .  S
N970        C971   1.362       .  A
C971        N972   1.376       .  A
C971       C1096   1.484       .  S
C973        N974   1.366       .  A
C973        N978   1.347       .  A
C973       C1136   1.477       .  S
N974        C975   1.367       .  A
C975        N976   1.361       .  A
C975       C1051   1.471       .  S
N976        C977   1.356       .  A
C977        N978   1.350       .  A
C977       C1016   1.452       .  S
C979        N980   1.346       .  A
C979        N984   1.364       .  A
C979       C1137   1.477       .  S
N980        C981   1.350       .  A
C981        N982   1.359       .  A
C981       C1061   1.457       .  S
N982        C983   1.364       .  A
C983        N984   1.367       .  A
C983       C1006   1.475       .  S
C985        N986   1.346       .  A
C985        N990   1.367       .  A
C985       C1133   1.479       .  S
N986        C987   1.350       .  A
C987        N988   1.356       .  A
C987       C1131   1.454       .  S
N988        C989   1.362       .  A
C989        N990   1.368       .  A
C989       C1027   1.474       .  S
C991        N992   1.367       .  A
C991        N996   1.346       .  A
C991       C1132   1.479       .  S
N992        C993   1.369       .  A
C993        N994   1.364       .  A
C993       C1117   1.478       .  S
N994        C995   1.357       .  A
C995        N996   1.349       .  A
C995       C1041   1.456       .  S
N997        N998   1.322       .  A
N997       N1003   1.318       .  A
N997      Mn1026   2.222       .  S
N998       C1005   1.355       .  A
N999       N1001   1.317       .  A
N999       N1000   1.324       .  A
N999      Mn1015   2.226       .  S
N1000      C1006   1.355       .  A
N1001      N1002   1.322       .  A
N1001     Mn1026   2.205       .  S
N1002      C1006   1.352       .  A
N1003      N1004   1.321       .  A
N1003     Mn1015   2.202       .  S
N1004      C1005   1.351       .  A
N1007      N1013   1.314       .  A
N1007      N1008   1.312       .  A
N1007     Mn1037   2.176       .  S
N1008      C1016   1.346       .  A
N1009      N1010   1.325       .  A
N1009      N1011   1.314       .  A
N1009     Mn1246   2.222   1_554  S
N1010      C1017   1.357       .  A
N1011      N1012   1.315       .  A
N1011     Mn1037   2.170       .  S
N1012      C1017   1.346       .  A
N1013      N1014   1.323       .  A
N1013     Mn1246   2.198   1_554  S
N1014      C1016   1.354       .  A
Mn1015     N1240   2.240       .  S
Mn1015     N1244   2.208       .  S
Mn1015    Cl1039   2.552       .  S
N1018      N1019   1.324       .  A
N1018      N1024   1.319       .  A
N1018     Mn1026   2.219       .  S
N1019      C1027   1.354       .  A
N1020      N1022   1.318       .  A
N1020      N1021   1.323       .  A
N1020     Mn1038   2.222       .  S
N1021      C1028   1.354       .  A
N1022      N1023   1.321       .  A
N1022     Mn1026   2.201       .  S
N1023      C1028   1.351       .  A
N1024      N1025   1.321       .  A
N1024     Mn1038   2.220       .  S
N1025      C1027   1.354       .  A
Mn1026    Cl1039   2.562       .  S
N1029      N1030   1.313       .  A
N1029      N1035   1.315       .  A
N1029     Mn1037   2.183       .  S
N1030      C1040   1.348       .  A
N1031      N1032   1.325       .  A
N1031      N1033   1.313       .  A
N1031     Mn1269   2.204   1_554  S
N1032      C1041   1.355       .  A
N1033      N1034   1.312       .  A
N1033     Mn1037   2.168       .  S
N1034      C1041   1.346       .  A
N1035      N1036   1.325       .  A
N1035     Mn1269   2.206   1_554  S
N1036      C1040   1.355       .  A
Mn1037    Cl1270   2.523   1_554  S
Mn1038     N1262   2.250       .  S
Mn1038     N1266   2.222       .  S
Mn1038    Cl1039   2.553       .  S
Cl1039    Mn1268   2.545       .  S
N1042      N1043   1.315       .  A
N1042      N1048   1.317       .  A
N1043      C1050   1.349       .  A
N1044      N1046   1.316       .  A
N1044      N1045   1.322       .  A
N1044     Mn1291   2.215   1_554  S
N1045      C1051   1.354       .  A
N1046      N1047   1.323       .  A
N1046     Mn1071   2.204       .  S
N1047      C1051   1.352       .  A
N1048      N1049   1.326       .  A
N1049      C1050   1.355       .  A
N1052      N1058   1.316       .  A
N1052      N1053   1.313       .  A
N1052     Mn1082   2.182       .  S
N1053      C1061   1.348       .  A
N1054      N1055   1.323       .  A
N1054      N1056   1.315       .  A
N1055      C1062   1.355       .  A
N1056      N1057   1.320       .  A
N1057      C1062   1.350       .  A
N1058      N1059   1.325       .  A
N1058     Mn1060   2.208       .  S
N1059      C1061   1.354       .  A
Mn1060     N1275   2.212       .  S
Mn1060    Cl1084   2.552       .  S
N1063      N1064   1.310       .  A
N1063      N1069   1.315       .  A
N1063     Mn1071   2.176       .  S
N1064      C1072   1.348       .  A
N1065      N1067   1.316       .  A
N1065     Mn1314   2.212   1_454  S
N1066      C1073   1.353       .  A
N1067     Mn1071   2.207   1_455  S
N1068      C1073   1.354       .  A
N1069      N1070   1.322       .  A
N1069     Mn1314   2.182   1_554  S
N1070      C1072   1.350       .  A
Mn1071    Cl1315   2.535   1_554  S
N1074      N1080   1.316       .  A
N1074     Mn1082   2.179   1_455  S
N1075      C1085   1.346       .  A
N1076      N1077   1.325       .  A
N1076      N1078   1.317       .  A
N1076     Mn1083   2.239       .  S
N1077      C1086   1.358       .  A
N1078      N1079   1.325       .  A
N1078     Mn1082   2.211       .  S
N1079      C1086   1.353       .  A
N1080     Mn1083   2.215   1_455  S
N1081      C1085   1.354       .  A
Mn1082    Cl1084   2.548       .  S
Mn1083     N1296   2.224   1_655  S
Mn1083     N1300   2.222       .  S
Mn1083    Cl1084   2.552       .  S
Cl1084    Mn1302   2.556       .  S
N1087      N1088   1.319       .  A
N1087      N1093   1.319       .  A
N1087     Mn1116   2.204       .  S
N1088      C1095   1.351       .  A
N1089      N1091   1.319       .  A
N1089      N1090   1.325       .  A
N1089     Mn1798   2.248   1_544  S
N1090      C1096   1.359       .  A
N1091      N1092   1.324       .  A
N1091     Mn1578   2.207   1_545  S
N1092      C1096   1.352       .  A
N1093      N1094   1.321       .  A
N1093     Mn1336   2.209   1_554  S
N1094      C1095   1.352       .  A
N1097      N1103   1.313       .  A
N1097      N1098   1.311       .  A
N1097     Mn1589   2.176   1_545  S
N1098      C1106   1.348       .  A
N1099      N1100   1.327       .  A
N1099      N1101   1.314       .  A
N1099     Mn1105   2.221       .  S
N1100      C1107   1.358       .  A
N1101      N1102   1.316       .  A
N1101     Mn1127   2.180       .  S
N1102      C1107   1.348       .  A
N1103      N1104   1.321       .  A
N1103     Mn1567   2.174   1_545  S
N1104      C1106   1.350       .  A
Mn1105     N1782   2.199       .  S
Mn1105     N1324   2.177       .  S
Mn1105     N1565   2.181       .  S
Mn1105    Cl1129   2.554       .  S
N1108      N1109   1.324       .  A
N1108      N1114   1.319       .  A
N1108     Mn1578   2.220   1_545  S
N1109      C1117   1.354       .  A
N1110      N1112   1.317       .  A
N1110      N1111   1.323       .  A
N1110     Mn1359   2.213   1_554  S
N1111      C1118   1.354       .  A
N1112      N1113   1.323       .  A
N1112     Mn1116   2.219       .  S
N1113      C1118   1.355       .  A
N1114      N1115   1.322       .  A
N1114     Mn1821   2.225   1_544  S
N1115      C1117   1.355       .  A
Mn1116     N1553   2.212       .  S
Mn1116     N1570   2.219       .  S
Mn1116    Cl1360   2.561   1_554  S
N1119      N1120   1.312       .  A
N1119      N1125   1.315       .  A
N1119     Mn1127   2.169       .  S
N1120      C1130   1.345       .  A
N1121      N1122   1.326       .  A
N1121      N1123   1.313       .  A
N1121     Mn1590   2.209   1_545  S
N1122      C1131   1.356       .  A
N1123      N1124   1.311       .  A
N1123     Mn1589   2.160   1_545  S
N1124      C1131   1.344       .  A
N1125      N1126   1.324       .  A
N1125     Mn1128   2.213       .  S
N1126      C1130   1.356       .  A
Mn1127     N1559   2.172       .  S
Mn1127     N1585   2.164       .  S
Mn1127    Cl1129   2.523       .  S
Mn1128     N1341   2.215       .  S
Mn1128     N1807   2.206       .  S
Mn1128     N1583   2.225       .  S
Mn1128    Cl1129   2.552       .  S
Cl1129    Mn1347   2.541       .  S
C1132      C1133   1.332       .  D
C1132      H1134   1.087       .  S
C1133      H1135   1.087       .  S
C1136      C1137   1.333       .  D
C1136      H1138   1.087       .  S
C1137      H1139   1.087       .  S
C1140      C1141   1.324       .  D
C1140      H1142   1.087       .  S
C1141      H1143   1.087       .  S
C1144      C1145   1.335       .  D
C1144      H1146   1.087       .  S
C1145      H1147   1.087       .  S
C1148      C1149   1.337       .  D
C1148      H1150   1.087       .  S
C1149      H1151   1.087       .  S
C1152      C1153   1.344       .  D
C1152      H1154   1.086       .  S
C1153      H1155   1.086       .  S
C1156      N1157   1.352       .  A
C1156      N1161   1.362       .  A
C1156      C1326   1.458       .  S
N1157      C1158   1.352       .  A
C1158      N1159   1.362       .  A
C1158      C1384   1.481       .  S
N1159      C1160   1.365       .  A
C1160      N1161   1.361       .  A
C1160      C1248   1.480       .  S
C1162      N1163   1.366       .  A
C1162      N1167   1.357       .  A
C1162      C1338   1.473       .  S
N1163      C1164   1.362       .  A
C1164      N1165   1.351       .  A
C1164      C1383   1.481       .  S
N1165      C1166   1.352       .  A
C1166      N1167   1.359       .  A
C1166      C1236   1.451       .  S
C1168      N1169   1.357       .  A
C1168      N1173   1.361       .  A
C1168      C1361   1.468       .  S
N1169      C1170   1.354       .  A
C1170      N1171   1.359       .  A
C1170      C1379   1.479       .  S
N1171      C1172   1.360       .  A
C1172      N1173   1.363       .  A
C1172      C1293   1.470       .  S
C1174      N1175   1.360       .  A
C1174      N1179   1.359       .  A
C1174      C1349   1.463       .  S
N1175      C1176   1.359       .  A
C1176      N1177   1.354       .  A
C1176      C1380   1.479       .  S
N1177      C1178   1.357       .  A
C1178      N1179   1.358       .  A
C1178      C1281   1.461       .  S
C1180      N1181   1.366       .  A
C1180      N1185   1.366       .  A
C1180      C1304   1.474       .  S
N1181      C1182   1.363       .  A
C1182      N1183   1.347       .  A
C1182      C1376   1.477       .  S
N1183      C1184   1.351       .  A
C1184      N1185   1.359       .  A
C1184      C1271   1.462       .  S
C1186      N1187   1.352       .  A
C1186      N1191   1.354       .  A
C1186      C1316   1.453       .  S
N1187      C1188   1.348       .  A
C1188      N1189   1.364       .  A
C1188      C1375   1.478       .  S
N1189      C1190   1.365       .  A
C1190      N1191   1.360       .  A
C1190      C1259   1.467       .  S
C1192      N1193   1.360       .  A
C1192      N1197   1.352       .  A
C1192      C1372   1.478       .  S
N1193      C1194   1.362       .  A
C1194      N1195   1.361       .  A
C1194      C1337   1.470       .  S
N1195      C1196   1.360       .  A
C1196      N1197   1.355       .  A
C1196      C1317   1.461       .  S
C1198      N1199   1.360       .  A
C1198      N1203   1.351       .  A
C1198      C1371   1.478       .  S
N1199      C1200   1.362       .  A
C1200      N1201   1.361       .  A
C1200      C1303   1.469       .  S
N1201      C1202   1.360       .  A
C1202      N1203   1.355       .  A
C1202      C1327   1.460       .  S
C1204      N1205   1.364       .  A
C1204      N1209   1.347       .  A
C1204      C1367   1.476       .  S
N1205      C1206   1.365       .  A
C1206      N1207   1.362       .  A
C1206      C1282   1.471       .  S
N1207      C1208   1.357       .  A
C1208      N1209   1.351       .  A
C1208      C1247   1.454       .  S
C1210      N1211   1.346       .  A
C1210      N1215   1.363       .  A
C1210      C1368   1.475       .  S
N1211      C1212   1.350       .  A
C1212      N1213   1.358       .  A
C1212      C1292   1.455       .  S
N1213      C1214   1.363       .  A
C1214      N1215   1.366       .  A
C1214      C1237   1.472       .  S
C1216      N1217   1.368       .  A
C1216      N1221   1.344       .  A
C1216      C1364   1.478       .  S
N1217      C1218   1.370       .  A
C1218      N1219   1.360       .  A
C1218      C1362   1.481       .  S
N1219      C1220   1.359       .  A
C1220      N1221   1.347       .  A
C1220      C1258   1.448       .  S
C1222      N1223   1.342       .  A
C1222      N1227   1.368       .  A
C1222      C1363   1.477       .  S
N1223      C1224   1.346       .  A
C1224      N1225   1.359       .  A
C1224      C1348   1.448       .  S
N1225      C1226   1.362       .  A
C1226      N1227   1.372       .  A
C1226      C1272   1.483       .  S
N1228      N1229   1.316       .  A
N1228      N1234   1.317       .  A
N1228     Mn1257   2.195       .  S
N1229      C1236   1.351       .  A
N1230      N1232   1.316       .  A
N1230      N1231   1.323       .  A
N1230     Mn1246   2.213       .  S
N1231      C1237   1.354       .  A
N1232      N1233   1.321       .  A
N1232     Mn1257   2.205       .  S
N1233      C1237   1.352       .  A
N1234      N1235   1.319       .  A
N1234     Mn1246   2.189       .  S
N1235      C1236   1.349       .  A
N1238      N1244   1.315       .  A
N1238      N1239   1.313       .  A
N1238     Mn1268   2.175       .  S
N1239      C1247   1.347       .  A
N1240      N1241   1.328       .  A
N1240      N1242   1.315       .  A
N1241      C1248   1.360       .  A
N1242      N1243   1.319       .  A
N1242     Mn1268   2.190       .  S
N1243      C1248   1.348       .  A
N1244      N1245   1.324       .  A
N1245      C1247   1.354       .  A
Mn1246    Cl1270   2.551       .  S
N1249      N1250   1.315       .  A
N1249      N1255   1.316       .  A
N1249     Mn1257   2.193       .  S
N1250      C1258   1.351       .  A
N1251      N1253   1.316       .  A
N1251      N1252   1.320       .  A
N1251     Mn1269   2.201       .  S
N1252      C1259   1.351       .  A
N1253      N1254   1.323       .  A
N1253     Mn1257   2.209       .  S
N1254      C1259   1.353       .  A
N1255      N1256   1.319       .  A
N1255     Mn1269   2.180       .  S
N1256      C1258   1.348       .  A
Mn1257    Cl1270   2.542       .  S
N1260      N1261   1.311       .  A
N1260      N1266   1.315       .  A
N1260     Mn1268   2.173       .  S
N1261      C1271   1.345       .  A
N1262      N1263   1.328       .  A
N1262      N1264   1.316       .  A
N1263      C1272   1.362       .  A
N1264      N1265   1.321       .  A
N1264     Mn1268   2.189       .  S
N1265      C1272   1.348       .  A
N1266      N1267   1.328       .  A
N1267      C1271   1.358       .  A
Mn1269    Cl1270   2.552       .  S
N1273      N1274   1.315       .  A
N1273      N1279   1.317       .  A
N1274      C1281   1.347       .  A
N1275      N1277   1.316       .  A
N1275      N1276   1.321       .  A
N1276      C1282   1.353       .  A
N1277      N1278   1.323       .  A
N1277     Mn1302   2.209       .  S
N1278      C1282   1.353       .  A
N1279      N1280   1.324       .  A
N1280      C1281   1.355       .  A
N1283      N1289   1.315       .  A
N1283      N1284   1.312       .  A
N1283     Mn1313   2.178       .  S
N1284      C1292   1.347       .  A
N1285      N1286   1.324       .  A
N1285      N1287   1.314       .  A
N1286      C1293   1.354       .  A
N1287      N1288   1.319       .  A
N1288      C1293   1.352       .  A
N1289      N1290   1.324       .  A
N1289     Mn1291   2.204       .  S
N1290      C1292   1.354       .  A
Mn1291    Cl1315   2.552       .  S
N1294      N1295   1.319       .  A
N1294      N1300   1.318       .  A
N1294     Mn1302   2.202       .  S
N1295      C1303   1.350       .  A
N1296      N1298   1.317       .  A
N1297      C1304   1.352       .  A
N1298     Mn1302   2.205   1_455  S
N1299      C1304   1.355       .  A
N1300      N1301   1.324       .  A
N1301      C1303   1.355       .  A
N1305      N1311   1.315       .  A
N1305     Mn1313   2.180   1_455  S
N1306      C1316   1.343       .  A
N1307      N1308   1.323       .  A
N1307      N1309   1.314       .  A
N1307     Mn1314   2.204       .  S
N1308      C1317   1.353       .  A
N1309      N1310   1.317       .  A
N1309     Mn1313   2.185       .  S
N1310      C1317   1.349       .  A
N1311     Mn1314   2.200   1_455  S
N1312      C1316   1.356       .  A
Mn1313    Cl1315   2.530       .  S
Mn1314    Cl1315   2.553       .  S
N1318      N1319   1.320       .  A
N1318      N1324   1.317       .  A
N1318     Mn1347   2.220       .  S
N1319      C1326   1.355       .  A
N1320      N1322   1.315       .  A
N1320      N1321   1.324       .  A
N1320     Mn1567   2.207   1_545  S
N1321      C1327   1.354       .  A
N1322      N1323   1.315       .  A
N1322     Mn1809   2.181   1_545  S
N1323      C1327   1.348       .  A
N1324      N1325   1.319       .  A
N1325      C1326   1.347       .  A
N1328      N1334   1.317       .  A
N1328      N1329   1.319       .  A
N1328     Mn1820   2.198   1_545  S
N1329      C1337   1.350       .  A
N1330      N1331   1.329       .  A
N1330      N1332   1.315       .  A
N1330     Mn1336   2.253       .  S
N1331      C1338   1.363       .  A
N1332      N1333   1.315       .  A
N1332     Mn1358   2.161       .  S
N1333      C1338   1.344       .  A
N1334      N1335   1.324       .  A
N1334     Mn1798   2.223   1_545  S
N1335      C1337   1.356       .  A
Mn1336     N1551   2.242   1_556  S
Mn1336     N1796   2.228       .  S
Mn1336    Cl1360   2.550       .  S
N1339      N1340   1.314       .  A
N1339      N1345   1.315       .  A
N1339     Mn1809   2.192   1_545  S
N1340      C1348   1.351       .  A
N1341      N1343   1.316       .  A
N1341      N1342   1.323       .  A
N1342      C1349   1.354       .  A
N1343      N1344   1.318       .  A
N1343     Mn1347   2.188       .  S
N1344      C1349   1.349       .  A
N1345      N1346   1.320       .  A
N1345     Mn1590   2.173   1_545  S
N1346      C1348   1.348       .  A
Mn1347     N1784   2.185       .  S
Mn1347     N1801   2.223       .  S
N1350      N1351   1.317       .  A
N1350      N1356   1.316       .  A
N1350     Mn1358   2.194       .  S
N1351      C1361   1.349       .  A
N1352      N1353   1.328       .  A
N1352      N1354   1.317       .  A
N1352     Mn1821   2.254   1_545  S
N1353      C1362   1.362       .  A
N1354      N1355   1.320       .  A
N1354     Mn1820   2.186   1_545  S
N1355      C1362   1.348       .  A
N1356      N1357   1.325       .  A
N1356     Mn1359   2.215       .  S
N1357      C1361   1.356       .  A
Mn1358     N1790   2.198       .  S
Mn1358     N1816   2.158       .  S
Mn1358    Cl1360   2.542       .  S
Mn1359     N1576   2.207   1_556  S
Mn1359     N1814   2.217       .  S
Mn1359    Cl1360   2.555       .  S
C1363      C1364   1.329       .  D
C1363      H1365   1.087       .  S
C1364      H1366   1.087       .  S
C1367      C1368   1.334       .  D
C1367      H1369   1.087       .  S
C1368      H1370   1.087       .  S
C1371      C1372   1.341       .  D
C1371      H1373   1.086       .  S
C1372      H1374   1.086       .  S
C1375      C1376   1.335       .  D
C1375      H1377   1.087       .  S
C1376      H1378   1.087       .  S
C1379      C1380   1.344       .  D
C1379      H1381   1.086       .  S
C1380      H1382   1.086       .  S
C1383      C1384   1.355       .  D
C1383      H1385   1.086       .  S
C1384      H1386   1.086       .  S
C1387      N1388   1.359       .  A
C1387      N1392   1.364       .  A
C1387      C1557   1.466       .  S
N1388      C1389   1.357       .  A
C1389      N1390   1.355       .  A
C1389      C1615   1.479       .  S
N1390      C1391   1.359       .  A
C1391      N1392   1.360       .  A
C1391      C1479   1.470       .  S
C1393      N1394   1.359       .  A
C1393      N1398   1.356       .  A
C1393      C1569   1.464       .  S
N1394      C1395   1.356       .  A
C1395      N1396   1.358       .  A
C1395      C1614   1.480       .  S
N1396      C1397   1.359       .  A
C1397      N1398   1.359       .  A
C1397      C1467   1.460       .  S
C1399      N1400   1.348       .  A
C1399      N1404   1.355       .  A
C1399      C1592   1.446       .  S
N1400      C1401   1.345       .  A
C1401      N1402   1.367       .  A
C1401      C1610   1.477       .  S
N1402      C1403   1.369       .  A
C1403      N1404   1.359       .  A
C1403      C1524   1.473       .  S
C1405      N1406   1.369       .  A
C1405      N1410   1.365       .  A
C1405      C1580   1.483       .  S
N1406      C1407   1.366       .  A
C1407      N1408   1.344       .  A
C1407      C1611   1.477       .  S
N1408      C1409   1.348       .  A
C1409      N1410   1.362       .  A
C1409      C1512   1.457       .  S
C1411      N1412   1.364       .  A
C1411      N1416   1.364       .  A
C1411      C1535   1.472       .  S
N1412      C1413   1.362       .  A
C1413      N1414   1.350       .  A
C1413      C1607   1.478       .  S
N1414      C1415   1.354       .  A
C1415      N1416   1.359       .  A
C1415      C1502   1.463       .  S
C1417      N1418   1.354       .  A
C1417      N1422   1.357       .  A
C1417      C1547   1.459       .  S
N1418      C1419   1.350       .  A
C1419      N1420   1.362       .  A
C1419      C1606   1.478       .  S
N1420      C1421   1.363       .  A
C1421      N1422   1.362       .  A
C1421      C1490   1.468       .  S
C1423      N1424   1.340       .  A
C1423      N1428   1.370       .  A
C1423      C1603   1.478       .  S
N1424      C1425   1.344       .  A
C1425      N1426   1.356       .  A
C1425      C1568   1.446       .  S
N1426      C1427   1.362       .  A
C1427      N1428   1.373       .  A
C1427      C1548   1.480       .  S
C1429      N1430   1.340       .  A
C1429      N1434   1.370       .  A
C1429      C1602   1.477       .  S
N1430      C1431   1.343       .  A
C1431      N1432   1.357       .  A
C1431      C1534   1.446       .  S
N1432      C1433   1.363       .  A
C1433      N1434   1.373       .  A
C1433      C1558   1.482       .  S
C1435      N1436   1.363       .  A
C1435      N1440   1.350       .  A
C1435      C1598   1.479       .  S
N1436      C1437   1.364       .  A
C1437      N1438   1.360       .  A
C1437      C1513   1.468       .  S
N1438      C1439   1.356       .  A
C1439      N1440   1.353       .  A
C1439      C1478   1.456       .  S
C1441      N1442   1.349       .  A
C1441      N1446   1.362       .  A
C1441      C1599   1.478       .  S
N1442      C1443   1.353       .  A
C1443      N1444   1.359       .  A
C1443      C1523   1.461       .  S
N1444      C1445   1.364       .  A
C1445      N1446   1.364       .  A
C1445      C1468   1.472       .  S
C1447      N1448   1.350       .  A
C1447      N1452   1.363       .  A
C1447      C1595   1.479       .  S
N1448      C1449   1.354       .  A
C1449      N1450   1.356       .  A
C1449      C1593   1.460       .  S
N1450      C1451   1.362       .  A
C1451      N1452   1.364       .  A
C1451      C1489   1.466       .  S
C1453      N1454   1.362       .  A
C1453      N1458   1.349       .  A
C1453      C1594   1.479       .  S
N1454      C1455   1.364       .  A
C1455      N1456   1.364       .  A
C1455      C1579   1.471       .  S
N1456      C1457   1.358       .  A
C1457      N1458   1.353       .  A
C1457      C1503   1.462       .  S
N1459      N1460   1.320       .  A
N1459      N1465   1.318       .  A
N1459     Mn1488   2.203       .  S
N1460      C1467   1.351       .  A
N1461      N1463   1.318       .  A
N1461      N1462   1.322       .  A
N1461     Mn1477   2.214       .  S
N1462      C1468   1.353       .  A
N1463      N1464   1.322       .  A
N1463     Mn1488   2.212       .  S
N1464      C1468   1.353       .  A
N1465      N1466   1.320       .  A
N1465     Mn1477   2.201       .  S
N1466      C1467   1.351       .  A
N1469      N1475   1.313       .  A
N1469      N1470   1.313       .  A
N1469     Mn1499   2.172       .  S
N1470      C1478   1.346       .  A
N1471      N1472   1.328       .  A
N1471      N1473   1.314       .  A
N1471     Mn1708   2.230   1_554  S
N1472      C1479   1.359       .  A
N1473      N1474   1.315       .  A
N1473     Mn1499   2.175       .  S
N1474      C1479   1.347       .  A
N1475      N1476   1.324       .  A
N1475     Mn1708   2.204   1_554  S
N1476      C1478   1.355       .  A
Mn1477     N1702   2.236       .  S
Mn1477     N1706   2.208       .  S
Mn1477    Cl1501   2.550       .  S
N1480      N1481   1.322       .  A
N1480      N1486   1.317       .  A
N1480     Mn1488   2.209       .  S
N1481      C1489   1.354       .  A
N1482      N1484   1.317       .  A
N1482      N1483   1.321       .  A
N1482     Mn1500   2.203       .  S
N1483      C1490   1.352       .  A
N1484      N1485   1.322       .  A
N1484     Mn1488   2.214       .  S
N1485      C1490   1.353       .  A
N1486      N1487   1.319       .  A
N1486     Mn1500   2.203       .  S
N1487      C1489   1.351       .  A
Mn1488    Cl1501   2.553       .  S
N1491      N1492   1.313       .  A
N1491      N1497   1.315       .  A
N1491     Mn1499   2.172       .  S
N1492      C1502   1.346       .  A
N1493      N1494   1.327       .  A
N1493      N1495   1.314       .  A
N1493     Mn1731   2.220   1_554  S
N1494      C1503   1.358       .  A
N1495      N1496   1.312       .  A
N1495     Mn1499   2.167       .  S
N1496      C1503   1.345       .  A
N1497      N1498   1.327       .  A
N1497     Mn1731   2.222   1_554  S
N1498      C1502   1.358       .  A
Mn1499    Cl1732   2.536   1_554  S
Mn1500     N1724   2.214       .  S
Mn1500     N1728   2.218       .  S
Mn1500    Cl1501   2.554       .  S
Cl1501    Mn1730   2.529       .  S
N1504      N1505   1.314       .  A
N1504      N1510   1.317       .  A
N1505      C1512   1.350       .  A
N1506      N1508   1.316       .  A
N1506      N1507   1.321       .  A
N1506     Mn1753   2.210   1_554  S
N1507      C1513   1.353       .  A
N1508      N1509   1.322       .  A
N1508     Mn1533   2.204       .  S
N1509      C1513   1.352       .  A
N1510      N1511   1.324       .  A
N1511      C1512   1.351       .  A
N1514      N1520   1.316       .  A
N1514      N1515   1.313       .  A
N1514     Mn1544   2.177       .  S
N1515      C1523   1.347       .  A
N1516      N1517   1.324       .  A
N1516      N1518   1.315       .  A
N1517      C1524   1.358       .  A
N1518      N1519   1.321       .  A
N1519      C1524   1.350       .  A
N1520      N1521   1.326       .  A
N1520     Mn1522   2.218       .  S
N1521      C1523   1.356       .  A
Mn1522     N1737   2.210       .  S
Mn1522    Cl1546   2.552       .  S
N1525      N1526   1.311       .  A
N1525      N1531   1.314       .  A
N1525     Mn1533   2.178       .  S
N1526      C1534   1.348       .  A
N1527      N1529   1.315       .  A
N1527     Mn1776   2.199   1_454  S
N1528      C1535   1.352       .  A
N1529     Mn1533   2.216   1_455  S
N1530      C1535   1.354       .  A
N1531      N1532   1.322       .  A
N1531     Mn1776   2.184   1_554  S
N1532      C1534   1.350       .  A
Mn1533    Cl1777   2.537   1_554  S
N1536      N1542   1.316       .  A
N1536     Mn1544   2.166   1_455  S
N1537      C1547   1.344       .  A
N1538      N1539   1.323       .  A
N1538      N1540   1.317       .  A
N1538     Mn1545   2.230       .  S
N1539      C1548   1.356       .  A
N1540      N1541   1.324       .  A
N1540     Mn1544   2.212       .  S
N1541      C1548   1.353       .  A
N1542     Mn1545   2.230   1_455  S
N1543      C1547   1.357       .  A
Mn1544    Cl1546   2.550       .  S
Mn1545     N1758   2.222   1_655  S
Mn1545     N1762   2.236       .  S
Mn1545    Cl1546   2.550       .  S
Cl1546    Mn1764   2.557       .  S
N1549      N1550   1.320       .  A
N1549      N1555   1.318       .  A
N1549     Mn1578   2.214       .  S
N1550      C1557   1.353       .  A
N1551      N1553   1.319       .  A
N1551      N1552   1.324       .  A
N1552      C1558   1.357       .  A
N1553      N1554   1.324       .  A
N1554      C1558   1.352       .  A
N1555      N1556   1.322       .  A
N1555     Mn1798   2.204   1_554  S
N1556      C1557   1.351       .  A
N1559      N1565   1.312       .  A
N1559      N1560   1.311       .  A
N1560      C1568   1.347       .  A
N1561      N1562   1.326       .  A
N1561      N1563   1.314       .  A
N1561     Mn1567   2.226       .  S
N1562      C1569   1.359       .  A
N1563      N1564   1.314       .  A
N1563     Mn1589   2.167       .  S
N1564      C1569   1.345       .  A
N1565      N1566   1.322       .  A
N1566      C1568   1.351       .  A
Mn1567     N1786   2.174       .  S
Mn1567    Cl1591   2.550       .  S
N1570      N1571   1.323       .  A
N1570      N1576   1.317       .  A
N1571      C1579   1.355       .  A
N1572      N1574   1.317       .  A
N1572      N1573   1.326       .  A
N1572     Mn1821   2.237   1_554  S
N1573      C1580   1.357       .  A
N1574      N1575   1.323       .  A
N1574     Mn1578   2.208       .  S
N1575      C1580   1.353       .  A
N1576      N1577   1.321       .  A
N1577      C1579   1.351       .  A
Mn1578    Cl1822   2.569   1_554  S
N1581      N1582   1.312       .  A
N1581      N1587   1.314       .  A
N1581     Mn1589   2.176       .  S
N1582      C1592   1.347       .  A
N1583      N1584   1.327       .  A
N1583      N1585   1.314       .  A
N1584      C1593   1.359       .  A
N1585      N1586   1.312       .  A
N1586      C1593   1.343       .  A
N1587      N1588   1.321       .  A
N1587     Mn1590   2.187       .  S
N1588      C1592   1.351       .  A
Mn1589    Cl1591   2.514       .  S
Mn1590     N1803   2.211       .  S
Mn1590    Cl1591   2.553       .  S
Cl1591    Mn1809   2.527       .  S
C1594      C1595   1.337       .  D
C1594      H1596   1.087       .  S
C1595      H1597   1.087       .  S
C1598      C1599   1.337       .  D
C1598      H1600   1.087       .  S
C1599      H1601   1.087       .  S
C1602      C1603   1.326       .  D
C1602      H1604   1.087       .  S
C1603      H1605   1.087       .  S
C1606      C1607   1.338       .  D
C1606      H1608   1.087       .  S
C1607      H1609   1.087       .  S
C1610      C1611   1.331       .  D
C1610      H1612   1.087       .  S
C1611      H1613   1.087       .  S
C1614      C1615   1.345       .  D
C1614      H1616   1.086       .  S
C1615      H1617   1.086       .  S
C1618      N1619   1.352       .  A
C1618      N1623   1.355       .  A
C1618      C1788   1.445       .  S
N1619      C1620   1.352       .  A
C1620      N1621   1.361       .  A
C1620      C1846   1.478       .  S
N1621      C1622   1.364       .  A
C1622      N1623   1.354       .  A
C1622      C1710   1.465       .  S
C1624      N1625   1.364       .  A
C1624      N1629   1.363       .  A
C1624      C1800   1.481       .  S
N1625      C1626   1.360       .  A
C1626      N1627   1.351       .  A
C1626      C1845   1.478       .  S
N1627      C1628   1.352       .  A
C1628      N1629   1.365       .  A
C1628      C1698   1.461       .  S
C1630      N1631   1.357       .  A
C1630      N1635   1.362       .  A
C1630      C1823   1.466       .  S
N1631      C1632   1.352       .  A
C1632      N1633   1.358       .  A
C1632      C1841   1.478       .  S
N1633      C1634   1.361       .  A
C1634      N1635   1.363       .  A
C1634      C1755   1.471       .  S
C1636      N1637   1.361       .  A
C1636      N1641   1.357       .  A
C1636      C1811   1.460       .  S
N1637      C1638   1.359       .  A
C1638      N1639   1.354       .  A
C1638      C1842   1.479       .  S
N1639      C1640   1.357       .  A
C1640      N1641   1.355       .  A
C1640      C1743   1.456       .  S
C1642      N1643   1.364       .  A
C1642      N1647   1.365       .  A
C1642      C1766   1.473       .  S
N1643      C1644   1.362       .  A
C1644      N1645   1.349       .  A
C1644      C1838   1.477       .  S
N1645      C1646   1.353       .  A
C1646      N1647   1.360       .  A
C1646      C1733   1.463       .  S
C1648      N1649   1.354       .  A
C1648      N1653   1.355       .  A
C1648      C1778   1.456       .  S
N1649      C1650   1.350       .  A
C1650      N1651   1.363       .  A
C1650      C1837   1.478       .  S
N1651      C1652   1.363       .  A
C1652      N1653   1.360       .  A
C1652      C1721   1.466       .  S
C1654      N1655   1.365       .  A
C1654      N1659   1.348       .  A
C1654      C1834   1.478       .  S
N1655      C1656   1.366       .  A
C1656      N1657   1.361       .  A
C1656      C1799   1.475       .  S
N1657      C1658   1.359       .  A
C1658      N1659   1.351       .  A
C1658      C1779   1.454       .  S
C1660      N1661   1.364       .  A
C1660      N1665   1.347       .  A
C1660      C1833   1.477       .  S
N1661      C1662   1.367       .  A
C1662      N1663   1.362       .  A
C1662      C1765   1.475       .  S
N1663      C1664   1.360       .  A
C1664      N1665   1.350       .  A
C1664      C1789   1.455       .  S
C1666      N1667   1.362       .  A
C1666      N1671   1.350       .  A
C1666      C1829   1.477       .  S
N1667      C1668   1.363       .  A
C1668      N1669   1.362       .  A
C1668      C1744   1.469       .  S
N1669      C1670   1.358       .  A
C1670      N1671   1.353       .  A
C1670      C1709   1.459       .  S
C1672      N1673   1.349       .  A
C1672      N1677   1.362       .  A
C1672      C1830   1.477       .  S
N1673      C1674   1.353       .  A
C1674      N1675   1.360       .  A
C1674      C1754   1.461       .  S
N1675      C1676   1.364       .  A
C1676      N1677   1.364       .  A
C1676      C1699   1.472       .  S
C1678      N1679   1.346       .  A
C1678      N1683   1.366       .  A
C1678      C1826   1.477       .  S
N1679      C1680   1.350       .  A
C1680      N1681   1.356       .  A
C1680      C1824   1.455       .  S
N1681      C1682   1.364       .  A
C1682      N1683   1.367       .  A
C1682      C1720   1.474       .  S
C1684      N1685   1.365       .  A
C1684      N1689   1.346       .  A
C1684      C1825   1.477       .  S
N1685      C1686   1.367       .  A
C1686      N1687   1.364       .  A
C1686      C1810   1.473       .  S
N1687      C1688   1.356       .  A
C1688      N1689   1.350       .  A
C1688      C1734   1.456       .  S
N1690      N1691   1.319       .  A
N1690      N1696   1.318       .  A
N1690     Mn1719   2.220       .  S
N1691      C1698   1.355       .  A
N1692      N1694   1.318       .  A
N1692      N1693   1.323       .  A
N1692     Mn1708   2.219       .  S
N1693      C1699   1.354       .  A
N1694      N1695   1.322       .  A
N1694     Mn1719   2.210       .  S
N1695      C1699   1.353       .  A
N1696      N1697   1.321       .  A
N1696     Mn1708   2.186       .  S
N1697      C1698   1.348       .  A
N1700      N1706   1.314       .  A
N1700      N1701   1.314       .  A
N1700     Mn1730   2.176       .  S
N1701      C1709   1.347       .  A
N1702      N1703   1.326       .  A
N1702      N1704   1.315       .  A
N1703      C1710   1.360       .  A
N1704      N1705   1.316       .  A
N1704     Mn1730   2.165       .  S
N1705      C1710   1.344       .  A
N1706      N1707   1.325       .  A
N1707      C1709   1.355       .  A
Mn1708    Cl1732   2.552       .  S
N1711      N1712   1.325       .  A
N1711      N1717   1.318       .  A
N1711     Mn1719   2.225       .  S
N1712      C1720   1.356       .  A
N1713      N1715   1.317       .  A
N1713      N1714   1.320       .  A
N1713     Mn1731   2.205       .  S
N1714      C1721   1.351       .  A
N1715      N1716   1.322       .  A
N1715     Mn1719   2.210       .  S
N1716      C1721   1.353       .  A
N1717      N1718   1.320       .  A
N1717     Mn1731   2.209       .  S
N1718      C1720   1.351       .  A
Mn1719    Cl1732   2.549       .  S
N1722      N1723   1.313       .  A
N1722      N1728   1.315       .  A
N1722     Mn1730   2.176       .  S
N1723      C1733   1.346       .  A
N1724      N1725   1.327       .  A
N1724      N1726   1.313       .  A
N1725      C1734   1.357       .  A
N1726      N1727   1.310       .  A
N1726     Mn1730   2.160       .  S
N1727      C1734   1.344       .  A
N1728      N1729   1.327       .  A
N1729      C1733   1.357       .  A
Mn1731    Cl1732   2.550       .  S
N1735      N1736   1.315       .  A
N1735      N1741   1.317       .  A
N1736      C1743   1.346       .  A
N1737      N1739   1.317       .  A
N1737      N1738   1.322       .  A
N1738      C1744   1.352       .  A
N1739      N1740   1.322       .  A
N1739     Mn1764   2.208       .  S
N1740      C1744   1.353       .  A
N1741      N1742   1.323       .  A
N1742      C1743   1.354       .  A
N1745      N1751   1.315       .  A
N1745      N1746   1.314       .  A
N1745     Mn1775   2.180       .  S
N1746      C1754   1.347       .  A
N1747      N1748   1.325       .  A
N1747      N1749   1.314       .  A
N1748      C1755   1.356       .  A
N1749      N1750   1.319       .  A
N1750      C1755   1.351       .  A
N1751      N1752   1.325       .  A
N1751     Mn1753   2.213       .  S
N1752      C1754   1.356       .  A
Mn1753    Cl1777   2.549       .  S
N1756      N1757   1.320       .  A
N1756      N1762   1.318       .  A
N1756     Mn1764   2.198       .  S
N1757      C1765   1.350       .  A
N1758      N1760   1.316       .  A
N1759      C1766   1.353       .  A
N1760     Mn1764   2.204   1_455  S
N1761      C1766   1.354       .  A
N1762      N1763   1.325       .  A
N1763      C1765   1.358       .  A
N1767      N1773   1.315       .  A
N1767     Mn1775   2.181   1_455  S
N1768      C1778   1.344       .  A
N1769      N1770   1.322       .  A
N1769      N1771   1.314       .  A
N1769     Mn1776   2.193       .  S
N1770      C1779   1.352       .  A
N1771      N1772   1.314       .  A
N1771     Mn1775   2.180       .  S
N1772      C1779   1.348       .  A
N1773     Mn1776   2.193   1_455  S
N1774      C1778   1.357       .  A
Mn1775    Cl1777   2.530       .  S
Mn1776    Cl1777   2.550       .  S
N1780      N1781   1.317       .  A
N1780      N1786   1.316       .  A
N1780     Mn1809   2.192       .  S
N1781      C1788   1.350       .  A
N1782      N1784   1.315       .  A
N1782      N1783   1.323       .  A
N1783      C1789   1.351       .  A
N1784      N1785   1.315       .  A
N1785      C1789   1.349       .  A
N1786      N1787   1.316       .  A
N1787      C1788   1.347       .  A
N1790      N1796   1.316       .  A
N1790      N1791   1.321       .  A
N1791      C1799   1.351       .  A
N1792      N1793   1.330       .  A
N1792      N1794   1.316       .  A
N1792     Mn1798   2.249       .  S
N1793      C1800   1.361       .  A
N1794      N1795   1.318       .  A
N1794     Mn1820   2.185       .  S
N1795      C1800   1.348       .  A
N1796      N1797   1.325       .  A
N1797      C1799   1.357       .  A
Mn1798    Cl1822   2.553       .  S
N1801      N1802   1.325       .  A
N1801      N1807   1.317       .  A
N1802      C1810   1.356       .  A
N1803      N1805   1.315       .  A
N1803      N1804   1.322       .  A
N1804      C1811   1.354       .  A
N1805      N1806   1.317       .  A
N1805     Mn1809   2.182       .  S
N1806      C1811   1.348       .  A
N1807      N1808   1.320       .  A
N1808      C1810   1.351       .  A
N1812      N1813   1.316       .  A
N1812      N1818   1.316       .  A
N1812     Mn1820   2.193       .  S
N1813      C1823   1.349       .  A
N1814      N1815   1.327       .  A
N1814      N1816   1.314       .  A
N1815      C1824   1.357       .  A
N1816      N1817   1.310       .  A
N1817      C1824   1.343       .  A
N1818      N1819   1.325       .  A
N1818     Mn1821   2.218       .  S
N1819      C1823   1.355       .  A
Mn1820    Cl1822   2.558       .  S
Mn1821    Cl1822   2.553       .  S
C1825      C1826   1.332       .  D
C1825      H1827   1.087       .  S
C1826      H1828   1.087       .  S
C1829      C1830   1.337       .  D
C1829      H1831   1.087       .  S
C1830      H1832   1.087       .  S
C1833      C1834   1.335       .  D
C1833      H1835   1.087       .  S
C1834      H1836   1.087       .  S
C1837      C1838   1.337       .  D
C1837      H1839   1.087       .  S
C1838      H1840   1.087       .  S
C1841      C1842   1.343       .  D
C1841      H1843   1.086       .  S
C1842      H1844   1.086       .  S
C1845      C1846   1.353       .  D
C1845      H1847   1.086       .  S
C1846      H1848   1.086       .  S
