geometry optimzed in LAMMPS
_audit_creation_date              2020-12-01 
_audit_creation_method            'lammps2cif' 
_symmetry_space_group_name_H-M    'P1' 
_symmetry_Int_Tables_number       1 
_symmetry_cell_setting            triclinic 
loop_ 
_symmetry_equiv_pos_as_xyz 
  x,y,z 
_cell_length_a                    25.09296067 
_cell_length_b                    50.96934941894877 
_cell_length_c                    25.635273248363482 
_cell_angle_alpha                 90.08871759244842 
_cell_angle_beta                  89.89561650375404 
_cell_angle_gamma                 90.00466509608215 
loop_ 
_atom_site_label 
_atom_site_type_symbol 
_atom_site_fract_x 
_atom_site_fract_y 
_atom_site_fract_z 
_atom_site_charge 
O1          O  0.55488444  0.22388425  0.60515720    -0.73400
O2          O  0.44376703  0.27450000  0.60705033    -0.74400
O3          O  0.55072014  0.27663271  0.60694515    -0.63000
O4          O  0.44804964  0.22183932  0.60543026    -0.71400
O5          O  0.43731659  0.22037089  0.69047218    -0.71000
O6          O  0.56101546  0.27705573  0.69205232    -0.62200
O7          O  0.44179653  0.27929780  0.69221684    -0.74700
O8          O  0.55643900  0.21824154  0.69016636    -0.73500
Cu9        Cu  0.49933212  0.24922673  0.60468711     1.04600
Cu10       Cu  0.49911171  0.24870454  0.69568006     1.04300
C11         C  0.57319670  0.21191197  0.64430672     0.92800
C12         C  0.42538154  0.28617257  0.64667449     0.91900
C13         C  0.57442679  0.28557701  0.64660048     0.84100
C14         C  0.42429437  0.21235190  0.64455633     0.90300
O15         O  0.65719656  0.22393840  0.39289615    -0.73400
O16         O  0.65909158  0.27152925  0.50740537    -0.74400
O17         O  0.65947175  0.27644038  0.40271380    -0.63000
O18         O  0.65668614  0.21900084  0.49761543    -0.71400
O19         O  0.74347174  0.21725214  0.50861367    -0.71000
O20         O  0.74639249  0.27583056  0.39163964    -0.62200
O21         O  0.74629878  0.27581081  0.50873163    -0.74700
O22         O  0.74374714  0.21728249  0.39158368    -0.73500
Cu23       Cu  0.65657487  0.24774559  0.45016486     1.04600
Cu24       Cu  0.74950876  0.24650868  0.45015347     1.04300
C25         C  0.69691017  0.21193819  0.37410278     0.92800
C26         C  0.70004438  0.28239349  0.52622069     0.91900
C27         C  0.70028118  0.28503799  0.37939218     0.84100
C28         C  0.69640960  0.20920883  0.52075150     0.90300
O29         O  0.56634453  0.36888535  0.51107709    -0.73400
O30         O  0.44961360  0.37082254  0.39293262    -0.74400
O31         O  0.44786819  0.37059541  0.50910387    -0.63000
O32         O  0.56817178  0.36911745  0.39443715    -0.71400
O33         O  0.55172507  0.32671927  0.39247324    -0.71000
O34         O  0.45897208  0.32776193  0.51021747    -0.62200
O35         O  0.44514682  0.32818741  0.40574345    -0.74700
O36         O  0.56556016  0.32629763  0.49692739    -0.73500
Cu37       Cu  0.50818069  0.37210047  0.45191248     1.04600
Cu38       Cu  0.50533988  0.32644434  0.45133462     1.04300
C39         C  0.58368278  0.34576334  0.52188858     0.92800
C40         C  0.42920911  0.34835189  0.38165003     0.91900
C41         C  0.43533787  0.34791049  0.52735600     0.84100
C42         C  0.57760086  0.34619122  0.37546658     0.90300
O43         O  0.34156233  0.22618262  0.50333911    -0.73400
O44         O  0.34406096  0.27831700  0.39772235    -0.74400
O45         O  0.34439243  0.27894118  0.50243118    -0.63000
O46         O  0.34110720  0.22565003  0.39860706    -0.71400
O47         O  0.25371274  0.22410653  0.39280956    -0.71000
O48         O  0.25743225  0.28304877  0.50910231    -0.62200
O49         O  0.25707163  0.28272291  0.39237170    -0.74700
O50         O  0.25418920  0.22421618  0.50912617    -0.73500
Cu51       Cu  0.34432622  0.25226550  0.45053935     1.04600
Cu52       Cu  0.25113449  0.25359788  0.45091470     1.04300
C53         C  0.30046168  0.21614639  0.52365948     0.92800
C54         C  0.30416220  0.28930617  0.37724398     0.91900
C55         C  0.30460234  0.28991455  0.52338810     0.84100
C56         C  0.29987520  0.21590021  0.37805947     0.90300
O57         O  0.55230628  0.12902302  0.38835394    -0.73400
O58         O  0.43499846  0.12977310  0.50629054    -0.74400
O59         O  0.43321735  0.13040675  0.38993473    -0.63000
O60         O  0.55372789  0.12838110  0.50474214    -0.71400
O61         O  0.54391086  0.17127232  0.50553618    -0.71000
O62         O  0.44768144  0.17296507  0.39073887    -0.62200
O63         O  0.43722843  0.17255670  0.49524927    -0.74700
O64         O  0.55435167  0.17171677  0.40114308    -0.73500
Cu65       Cu  0.49347217  0.12715657  0.44723442     1.04600
Cu66       Cu  0.49583710  0.17290161  0.44816422     1.04300
C67         C  0.57151846  0.15175630  0.37720628     0.92800
C68         C  0.41818107  0.15282834  0.51853064     0.91900
C69         C  0.42233211  0.15352245  0.37279939     0.84100
C70         C  0.56683375  0.15102872  0.52295990     0.90300
O71         O  0.56019984  0.27250645  0.29397568    -0.73400
O72         O  0.43829444  0.22783702  0.29344979    -0.74400
O73         O  0.54471092  0.22018406  0.29378525    -0.63000
O74         O  0.45392041  0.28017305  0.29396174    -0.71400
O75         O  0.44060594  0.28039635  0.20928156    -0.71000
O76         O  0.55798992  0.22059577  0.20896241    -0.62200
O77         O  0.43849939  0.22153238  0.20861725    -0.74700
O78         O  0.56003595  0.27921509  0.20927139    -0.73500
Cu79       Cu  0.49924020  0.25017285  0.29527258     1.04600
Cu80       Cu  0.49926316  0.25042805  0.20452900     1.04300
C81         C  0.57892022  0.28441580  0.25481058     0.92800
C82         C  0.41968915  0.21603786  0.25408141     0.91900
C83         C  0.56908280  0.21129282  0.25436459     0.84100
C84         C  0.42981775  0.28954301  0.25497062     0.90300
C85         C  0.68978240  0.33763976  0.63329623     0.86000
C86         C  0.72060271  0.31771227  0.59685200    -0.54200
C87         C  0.68763460  0.30287094  0.56655471     0.09000
C88         C  0.62900134  0.30930053  0.57550121     0.19900
C89         C  0.65410620  0.35368949  0.59458094    -0.54900
C90         C  0.62225558  0.33846049  0.56404884     0.09100
C91         C  0.64981830  0.31984760  0.66458534    -0.54500
C92         C  0.61750214  0.30501909  0.63346339     0.09600
H93         H  0.76297577  0.31497901  0.59376425     0.14100
H94         H  0.60294229  0.29737499  0.55080521    -0.00100
H95         H  0.65467223  0.37492484  0.59163947     0.14400
H96         H  0.64747270  0.31932376  0.70688722     0.14200
C97         C  0.80700456  0.41295166  0.76927710     0.86000
C98         C  0.84707642  0.43062944  0.73772360    -0.54200
C99         C  0.88003665  0.44526159  0.76862232     0.09000
C100        C  0.86863826  0.44109573  0.82654427     0.19900
C101        C  0.84276631  0.39677623  0.80763550    -0.54900
C102        C  0.87530542  0.41187284  0.83760449     0.09100
C103        C  0.77666749  0.43290756  0.80595898    -0.54500
C104        C  0.81002566  0.44761716  0.83610556     0.09600
H105        H  0.84948563  0.43095321  0.69542271     0.14100
H106        H  0.89492985  0.45309361  0.85085703    -0.00100
H107        H  0.84211919  0.37553451  0.81044701     0.14400
H108        H  0.73427363  0.43563148  0.80939376     0.14200
C109        C  0.67903789  0.15544377  0.62952713     0.86000
C110        C  0.71219382  0.17357820  0.59223396    -0.54200
C111        C  0.68149845  0.18944755  0.56174514     0.09000
C112        C  0.62206072  0.18574639  0.57229030     0.19900
C113        C  0.64182373  0.17456013  0.66110191    -0.54900
C114        C  0.61252995  0.19084959  0.63033252     0.09100
C115        C  0.63892873  0.14049541  0.59271544    -0.54500
C116        C  0.60927059  0.15689213  0.56240393     0.09600
H117        H  0.75536125  0.17356732  0.59029536     0.14100
H118        H  0.59774568  0.19866734  0.54794633    -0.00100
H119        H  0.63905798  0.17502507  0.70337637     0.14400
H120        H  0.63171190  0.11961217  0.59194882     0.14200
C121        C  0.82079711  0.09426085  0.77002163     0.86000
C122        C  0.86111492  0.10926278  0.80669539    -0.54200
C123        C  0.89025123  0.09292511  0.83767883     0.09000
C124        C  0.87685492  0.06408143  0.82832724     0.19900
C125        C  0.85777275  0.07474405  0.73916058    -0.54900
C126        C  0.88665384  0.05854479  0.77052998     0.09100
C127        C  0.78706048  0.07654342  0.80753063    -0.54500
C128        C  0.81725646  0.06073296  0.83853115     0.09600
H129        H  0.86888105  0.13007208  0.80683383     0.14100
H130        H  0.90078620  0.05113126  0.85293296    -0.00100
H131        H  0.86067136  0.07394765  0.69691919     0.14400
H132        H  0.74387638  0.07670968  0.80912578     0.14200
C133        C  0.32168230  0.34378556  0.63230071     0.86000
C134        C  0.36235335  0.35850625  0.59572551    -0.54200
C135        C  0.39261411  0.34198991  0.56637148     0.09000
C136        C  0.37880987  0.31324145  0.57532045     0.19900
C137        C  0.28872485  0.32617879  0.59367056    -0.54900
C138        C  0.31946366  0.30991751  0.56391706     0.09100
C139        C  0.35698376  0.32397138  0.66405672    -0.54500
C140        C  0.38686235  0.30771679  0.63329833     0.09600
H141        H  0.36744370  0.37933998  0.59123584     0.14100
H142        H  0.40320249  0.30047287  0.55061292    -0.00100
H143        H  0.24555261  0.32656656  0.59074308     0.14400
H144        H  0.35758042  0.32295615  0.70633602     0.14200
C145        C  0.17608434  0.40429730  0.77090555     0.86000
C146        C  0.13480796  0.38995358  0.80739656    -0.54200
C147        C  0.10536543  0.40677007  0.83696668     0.09000
C148        C  0.12002258  0.43544069  0.82769454     0.19900
C149        C  0.14147068  0.42431559  0.73902852    -0.54900
C150        C  0.11223188  0.44089220  0.76961725     0.09100
C151        C  0.20958670  0.42161100  0.80953195    -0.54500
C152        C  0.17944782  0.43806499  0.83933369     0.09600
H153        H  0.12875749  0.36912601  0.81160321     0.14100
H154        H  0.09606688  0.44866452  0.85195565    -0.00100
H155        H  0.14090590  0.42525297  0.69673809     0.14400
H156        H  0.25270253  0.42069952  0.81280365     0.14200
C157        C  0.68947295  0.33872736  0.26951855     0.86000
C158        C  0.65234678  0.31967968  0.23781619    -0.54200
C159        C  0.62028703  0.30455952  0.26857699     0.09000
C160        C  0.62897963  0.30991775  0.32661367     0.19900
C161        C  0.65104180  0.35454184  0.30603836    -0.54900
C162        C  0.61899014  0.33907686  0.33582790     0.09100
C163        C  0.72058529  0.31977164  0.30749067    -0.54500
C164        C  0.68776665  0.30492804  0.33800693     0.09600
H165        H  0.65165900  0.31849660  0.19552165     0.14100
H166        H  0.60305512  0.29773735  0.35100145    -0.00100
H167        H  0.64950450  0.37580045  0.30765108     0.14400
H168        H  0.76310469  0.31721354  0.31018139     0.14200
C169        C  0.80571868  0.41312901  0.13169523     0.86000
C170        C  0.77503621  0.43245874  0.09423754    -0.54200
C171        C  0.80826732  0.44686886  0.06328121     0.09000
C172        C  0.86694462  0.44082858  0.07341023     0.19900
C173        C  0.84257120  0.39662465  0.09473037    -0.54900
C174        C  0.87499332  0.41150028  0.06418120     0.09100
C175        C  0.84450169  0.43180448  0.16253392    -0.54500
C176        C  0.87713061  0.44626788  0.13108372     0.09600
H177        H  0.73249669  0.43576659  0.09295507     0.14100
H178        H  0.89322734  0.45252757  0.04864122    -0.00100
H179        H  0.84293394  0.37534377  0.09353462     0.14400
H180        H  0.84572337  0.43327556  0.20477249     0.14200
C181        C  0.31005953  0.15999959  0.62849439     0.86000
C182        C  0.34647294  0.14424279  0.58979679    -0.54200
C183        C  0.37861681  0.15975591  0.56012584     0.09000
C184        C  0.37121252  0.18885320  0.57217745     0.19900
C185        C  0.34929824  0.17776456  0.66064841    -0.54900
C186        C  0.38181248  0.19285082  0.63032131     0.09100
C187        C  0.27945749  0.18011009  0.59252599    -0.54500
C188        C  0.31262615  0.19519146  0.56290956     0.09600
H189        H  0.34635892  0.12301873  0.58641886     0.14100
H190        H  0.39739819  0.20106190  0.54817372    -0.00100
H191        H  0.35098686  0.17812068  0.70296923     0.14400
H192        H  0.23712722  0.18306400  0.58990170     0.14200
C193        C  0.19216760  0.08729922  0.76935721     0.86000
C194        C  0.15621350  0.10362922  0.80769057    -0.54200
C195        C  0.12357845  0.08857836  0.83792474     0.09000
C196        C  0.13064102  0.05930646  0.82702762     0.19900
C197        C  0.22251137  0.06739633  0.80588693    -0.54900
C198        C  0.18917669  0.05268811  0.83605461     0.09100
C199        C  0.15216361  0.06945464  0.73810561    -0.54500
C200        C  0.11929666  0.05489146  0.76920036     0.09600
H201        H  0.15651500  0.12489142  0.80994722     0.14100
H202        H  0.10467315  0.04735376  0.85170778    -0.00100
H203        H  0.26481969  0.06424832  0.80828500     0.14400
H204        H  0.15001942  0.06880851  0.69581812     0.14200
C205        C  0.32048886  0.34451229  0.27142785     0.86000
C206        C  0.35837063  0.32605827  0.23910979    -0.54200
C207        C  0.38888056  0.30992133  0.26927273     0.09000
C208        C  0.37823697  0.31391086  0.32746143     0.19900
C209        C  0.28778734  0.32559113  0.30766083    -0.54900
C210        C  0.31882830  0.30939718  0.33701586     0.09100
C211        C  0.35892000  0.35922668  0.31045318    -0.54500
C212        C  0.38910027  0.34264395  0.33982992     0.09600
H213        H  0.36044742  0.32594263  0.19680111     0.14100
H214        H  0.40292437  0.30091435  0.35129106    -0.00100
H215        H  0.24461698  0.32533314  0.30983207     0.14400
H216        H  0.36214673  0.38003111  0.31670321     0.14200
C217        C  0.17427073  0.40434396  0.13209098     0.86000
C218        C  0.13705190  0.42378092  0.16290629    -0.54200
C219        C  0.10818164  0.44003948  0.13141426     0.09000
C220        C  0.11934482  0.43507257  0.07370354     0.19900
C221        C  0.13530148  0.38969193  0.09360869    -0.54900
C222        C  0.10658456  0.40629085  0.06302153     0.09100
C223        C  0.20861942  0.42239596  0.09540816    -0.54500
C224        C  0.17905285  0.43885582  0.06514991     0.09600
H225        H  0.13438853  0.42451962  0.20516554     0.14100
H226        H  0.09603950  0.44806433  0.04863901    -0.00100
H227        H  0.12965695  0.36882425  0.08946959     0.14400
H228        H  0.25183169  0.42231425  0.09449189     0.14200
C229        C  0.68000318  0.15711165  0.26737150     0.86000
C230        C  0.71303625  0.17593870  0.30327719    -0.54200
C231        C  0.68216158  0.19175285  0.33389667     0.09000
C232        C  0.62269355  0.18701936  0.32539216     0.19900
C233        C  0.64149098  0.14191920  0.30524552    -0.54900
C234        C  0.61222251  0.15805705  0.33644486     0.09100
C235        C  0.64093674  0.17546256  0.23629470    -0.54500
C236        C  0.61099572  0.19136035  0.26757368     0.09600
H237        H  0.75622567  0.17644870  0.30418905     0.14100
H238        H  0.59814749  0.19978004  0.35005208    -0.00100
H239        H  0.63523910  0.12092853  0.30596477     0.14400
H240        H  0.63645368  0.17535313  0.19421532     0.14200
C241        C  0.82180878  0.09320234  0.13199623     0.86000
C242        C  0.78820300  0.07481995  0.09594176    -0.54200
C243        C  0.81847859  0.05885612  0.06526391     0.09000
C244        C  0.87820827  0.06301987  0.07369609     0.19900
C245        C  0.86019722  0.07446173  0.16288999    -0.54900
C246        C  0.88969597  0.05846408  0.13144073     0.09100
C247        C  0.86091756  0.10823442  0.09434573    -0.54500
C248        C  0.88998892  0.09193491  0.06311838     0.09600
H249        H  0.74500147  0.07458741  0.09516096     0.14100
H250        H  0.90212361  0.05000880  0.04890281    -0.00100
H251        H  0.86466447  0.07442612  0.20498732     0.14400
H252        H  0.86761656  0.12918627  0.09398335     0.14200
C253        C  0.30857446  0.16179223  0.26879045     0.86000
C254        C  0.34715962  0.14567743  0.30463404    -0.54200
C255        C  0.38005212  0.16088630  0.33414425     0.09000
C256        C  0.37033841  0.19011547  0.32557841     0.19900
C257        C  0.27830045  0.18067843  0.30764221    -0.54900
C258        C  0.31174999  0.19548311  0.33747987     0.09100
C259        C  0.34591958  0.18075372  0.23696762    -0.54500
C260        C  0.37856553  0.19567640  0.26762017     0.09600
H261        H  0.34832648  0.12440781  0.30583891     0.14100
H262        H  0.39666711  0.20201812  0.35001959    -0.00100
H263        H  0.23590361  0.18310241  0.31178891     0.14400
H264        H  0.34614152  0.18206571  0.19469930     0.14200
C265        C  0.19101410  0.08726904  0.13130305     0.86000
C266        C  0.15307576  0.06856322  0.16300923    -0.54200
C267        C  0.12101715  0.05340321  0.13220596     0.09000
C268        C  0.13001631  0.05869425  0.07420246     0.19900
C269        C  0.22177470  0.06803482  0.09336154    -0.54900
C270        C  0.18871228  0.05329306  0.06295982     0.09100
C271        C  0.15327348  0.10322081  0.09451734    -0.54500
C272        C  0.12100109  0.08791634  0.06468558     0.09600
H273        H  0.15222613  0.06749723  0.20530414     0.14100
H274        H  0.10373448  0.04665454  0.04993967    -0.00100
H275        H  0.26428257  0.06543242  0.09000919     0.14400
H276        H  0.15256449  0.12448133  0.09252764     0.14200
O277        O  0.24674824  0.02373799  0.00939235    -0.73400
O278        O  0.24257234  0.46513009  0.89219430    -0.74400
O279        O  0.24705006  0.02473832  0.89264885    -0.63000
O280        O  0.24251519  0.46416388  0.00876383    -0.71400
O281        O  0.15668808  0.47276677  0.00917056    -0.71000
O282        O  0.15984106  0.02050594  0.89307538    -0.62200
O283        O  0.15592829  0.46714853  0.90476802    -0.74700
O284        O  0.16000034  0.02528524  0.99768766    -0.73500
Cu285      Cu  0.25035511  0.49391690  0.95136087     1.04600
Cu286      Cu  0.15772796  0.49624221  0.95132755     1.04300
C287        C  0.20089291  0.03339442  0.02141503     0.92800
C288        C  0.19517310  0.45732384  0.88079528     0.91900
C289        C  0.20103666  0.03160456  0.87520844     0.84100
C290        C  0.19538356  0.45953243  0.02648604     0.90300
O291        O  0.06805102  0.11857712  0.00933720    -0.73400
O292        O  0.94909503  0.12135709  0.89281654    -0.74400
O293        O  0.94918509  0.12069018  0.00939961    -0.63000
O294        O  0.06870439  0.11920917  0.89265225    -0.71400
O295        O  0.06051455  0.07641011  0.89918286    -0.71000
O296        O  0.95076482  0.07771670  0.00134543    -0.62200
O297        O  0.95350821  0.07832303  0.89651590    -0.74700
O298        O  0.05765736  0.07579929  0.00383982    -0.73500
Cu299      Cu  0.00894953  0.12216956  0.95107174     1.04600
Cu300      Cu  0.00557498  0.07631253  0.95016517     1.04300
C301        C  0.08055161  0.09529461  0.02440876     0.92800
C302        C  0.93294622  0.09870384  0.87709538     0.91900
C303        C  0.93172561  0.09793529  0.02297300     0.84100
C304        C  0.08280523  0.09598639  0.87834097     0.90300
O305        O  0.95624123  0.02968903  0.10537805    -0.73400
O306        O  0.04787600  0.47166490  0.10419695    -0.74400
O307        O  0.94086005  0.47639132  0.10402881    -0.63000
O308        O  0.06250594  0.02058125  0.10644760    -0.71400
O309        O  0.06020119  0.02788466  0.19094015    -0.71000
O310        O  0.93653322  0.47277705  0.18937502    -0.62200
O311        O  0.05555382  0.46991142  0.18954440    -0.74700
O312        O  0.94114796  0.02875632  0.18995386    -0.73500
Cu313      Cu  0.99930388  0.50041786  0.10223313     1.04600
Cu314      Cu  0.99906772  0.50076884  0.19340400     1.04300
C315        C  0.93118662  0.03838871  0.14461200     0.92800
C316        C  0.06873779  0.46133262  0.14405473     0.91900
C317        C  0.91973287  0.46605153  0.14382804     0.84100
C318        C  0.08004465  0.03291245  0.14568273     0.90300
O319        O  0.84116226  0.03134427  0.90297647    -0.73400
O320        O  0.83822491  0.47671827  0.00208006    -0.74400
O321        O  0.83942726  0.47759296  0.89749205    -0.63000
O322        O  0.84162288  0.02613650  0.00711727    -0.71400
O323        O  0.75542381  0.03389109  0.00828092    -0.71000
O324        O  0.75204731  0.47612506  0.89215708    -0.62200
O325        O  0.75093898  0.47638264  0.00908242    -0.74700
O326        O  0.75448371  0.03328342  0.89139696    -0.73500
Cu327      Cu  0.84316525  0.50337951  0.95086331     1.04600
Cu328      Cu  0.74784039  0.00440072  0.95045298     1.04300
C329        C  0.80171702  0.04117563  0.87954214     0.92800
C330        C  0.79674230  0.46752836  0.02317389     0.91900
C331        C  0.79812796  0.46801142  0.87684671     0.84100
C332        C  0.80258421  0.03871214  0.02559851     0.90300
O333        O  0.05828385  0.47557766  0.79478298    -0.73400
O334        O  0.94362207  0.02529813  0.79677737    -0.74400
O335        O  0.95070147  0.47170960  0.79453026    -0.63000
O336        O  0.05103634  0.02718554  0.79573888    -0.71400
O337        O  0.06182518  0.02743439  0.71063697    -0.71000
O338        O  0.93708659  0.47283315  0.70989322    -0.62200
O339        O  0.94248773  0.03054308  0.71165280    -0.74700
O340        O  0.05630460  0.46847534  0.71021721    -0.73500
Cu341      Cu  0.00076065  0.50004265  0.79626883     1.04600
Cu342      Cu  0.99885287  0.99962937  0.70663614     1.05100
C343        C  0.07454766  0.46270323  0.75570579     0.92800
C344        C  0.92566549  0.03717982  0.75731339     0.91900
C345        C  0.92472714  0.46383430  0.75525293     0.84100
C346        C  0.07537703  0.03586166  0.75611958     0.90300
O347        O  0.04257724  0.42164238  0.89608920    -0.73400
O348        O  0.94066061  0.42315036  0.00541677    -0.74400
O349        O  0.04728431  0.42101728  0.00065196    -0.63000
O350        O  0.93592431  0.42376461  0.90099950    -0.71400
O351        O  0.92896411  0.38097848  0.89163352    -0.71000
O352        O  0.04649098  0.37808739  0.00910032    -0.62200
O353        O  0.92736728  0.38054742  0.00815380    -0.74700
O354        O  0.04753213  0.37855209  0.89270792    -0.73500
Cu355      Cu  0.99165368  0.42314851  0.95083774     1.04600
Cu356      Cu  0.98739377  0.37731603  0.95037327     1.04300
C357        C  0.06316279  0.40122511  0.87671708     0.92800
C358        C  0.91605030  0.40379353  0.02445142     0.91900
C359        C  0.06516028  0.40064927  0.02244531     0.84100
C360        C  0.91474407  0.40432384  0.87858120     0.90300
C361        C  0.19426193  0.12248340  0.20134244     0.23100
C362        C  0.22289452  0.10608460  0.16675091    -0.25000
C363        C  0.27892503  0.10912501  0.16532597     0.18000
C364        C  0.30468445  0.12712945  0.19798520     0.23100
C365        C  0.27621094  0.14328365  0.23308008    -0.24900
C366        C  0.22002352  0.14061477  0.23385491     0.18000
F367        F  0.18852928  0.15498588  0.26575056    -0.14900
F368        F  0.14019908  0.12120712  0.20345071    -0.17200
F369        F  0.35865008  0.12875254  0.19501991    -0.17200
F370        F  0.31021846  0.09559044  0.13186789    -0.14900
C371        C  0.77134739  0.13605706  0.15389145     0.23100
C372        C  0.78557150  0.11005681  0.16686291    -0.25000
C373        C  0.76215603  0.09906541  0.21191553     0.18000
C374        C  0.73050522  0.11415640  0.24541196     0.23100
C375        C  0.71648097  0.14024334  0.23262570    -0.24900
C376        C  0.73951863  0.15114393  0.18727453     0.18000
F377        F  0.73159407  0.17671339  0.17475170    -0.14900
F378        F  0.78496458  0.14681301  0.10743244    -0.17200
F379        F  0.71679489  0.10322453  0.29167530    -0.17200
F380        F  0.76928824  0.07336109  0.22387134    -0.14900
C381        C  0.24735217  0.34709966  0.20337396     0.23100
C382        C  0.28340127  0.36074884  0.23580201    -0.25000
C383        C  0.28237419  0.38849939  0.23348394     0.18000
C384        C  0.24598085  0.40167988  0.20145942     0.23100
C385        C  0.21008339  0.38804807  0.16886350    -0.24900
C386        C  0.21105080  0.36027977  0.17121992     0.18000
F387        F  0.17719314  0.34509450  0.14354713    -0.14900
F388        F  0.24714498  0.32043932  0.20258581    -0.17200
F389        F  0.24659830  0.42833736  0.20183926    -0.17200
F390        F  0.31706098  0.40364482  0.26023616    -0.14900
C391        C  0.28086476  0.10679625  0.73087104     0.23100
C392        C  0.22450755  0.10548787  0.73296395    -0.25000
C393        C  0.19596828  0.12242700  0.69960798     0.18000
C394        C  0.22184504  0.13968702  0.66551253     0.23100
C395        C  0.27809779  0.14128820  0.66398268    -0.24900
C396        C  0.30675141  0.12420273  0.69697878     0.18000
F397        F  0.36092154  0.12430543  0.69658757    -0.14900
F398        F  0.31245520  0.09189794  0.76148537    -0.17200
F399        F  0.19032366  0.15409257  0.63394179    -0.17200
F400        F  0.14182769  0.12233666  0.69981411    -0.14900
C401        C  0.77649693  0.36197933  0.23779994     0.23100
C402        C  0.72099294  0.35760501  0.23410324    -0.25000
C403        C  0.69255398  0.37260825  0.19709863     0.18000
C404        C  0.71832326  0.39035275  0.16385104     0.23100
C405        C  0.77381532  0.39476561  0.16775659    -0.24900
C406        C  0.80211908  0.37991629  0.20501549     0.18000
F407        F  0.85573730  0.38264583  0.20988721    -0.14900
F408        F  0.80714902  0.35001242  0.27392614    -0.17200
F409        F  0.68813163  0.40190156  0.12675986    -0.17200
F410        F  0.63884859  0.37003984  0.19270224    -0.14900
C411        C  0.24653110  0.34675036  0.69812121     0.23100
C412        C  0.28514825  0.36014384  0.66821890    -0.25000
C413        C  0.28729348  0.38779412  0.67340368     0.18000
C414        C  0.25102858  0.40119485  0.70521027     0.23100
C415        C  0.21245095  0.38781432  0.73513933    -0.24900
C416        C  0.21074762  0.36013617  0.73057727     0.18000
F417        F  0.17453291  0.34528176  0.75604239    -0.14900
F418        F  0.24308480  0.32016569  0.69589312    -0.17200
F419        F  0.25435855  0.42779360  0.70723199    -0.17200
F420        F  0.32491482  0.40259742  0.64984981    -0.14900
C421        C  0.75678468  0.09786582  0.69326822     0.23100
C422        C  0.78453359  0.11059174  0.73403125    -0.25000
C423        C  0.77558179  0.13778446  0.74056777     0.18000
C424        C  0.74330481  0.15173762  0.70582156     0.23100
C425        C  0.71566255  0.13904528  0.66501070    -0.24900
C426        C  0.72476982  0.11186559  0.65828686     0.18000
F427        F  0.70610875  0.09858302  0.61635885    -0.14900
F428        F  0.76077233  0.07148956  0.68667612    -0.17200
F429        F  0.73889509  0.17807206  0.71274272    -0.17200
F430        F  0.79472356  0.15117257  0.78212756    -0.14900
C431        C  0.69284983  0.37417544  0.70061142     0.23100
C432        C  0.72162101  0.35630682  0.66914297    -0.25000
C433        C  0.77790782  0.35767640  0.67125513     0.18000
C434        C  0.80360250  0.37634665  0.70244924     0.23100
C435        C  0.77488602  0.39429320  0.73371546    -0.24900
C436        C  0.71858204  0.39288770  0.73180747     0.18000
F437        F  0.68692097  0.40929222  0.75935142    -0.14900
F438        F  0.63870233  0.37372967  0.70099849    -0.17200
F439        F  0.85775625  0.37660724  0.70239454    -0.17200
F440        F  0.80970157  0.34123901  0.64398300    -0.14900
O441        O  0.55112536  0.72230897  0.60817642    -0.73400
O442        O  0.44678222  0.77616623  0.60833285    -0.74400
O443        O  0.55354888  0.77486192  0.60858003    -0.63000
O444        O  0.44435524  0.72367662  0.60816212    -0.71400
O445        O  0.43558312  0.72146883  0.69334259    -0.71000
O446        O  0.56141774  0.77687197  0.69386894    -0.62200
O447        O  0.44194938  0.78014893  0.69355604    -0.74700
O448        O  0.55529361  0.71812583  0.69333247    -0.73500
Cu449      Cu  0.49895961  0.74924537  0.60691182     1.04600
Cu450      Cu  0.49855659  0.74913953  0.69800371     1.04300
C451        C  0.57062727  0.71094178  0.64745923     0.92800
C452        C  0.42705471  0.78745883  0.64773140     0.91900
C453        C  0.57646570  0.78430401  0.64815897     0.84100
C454        C  0.42084406  0.71424022  0.64741885     0.90300
O455        O  0.65682694  0.72033292  0.39919063    -0.73400
O456        O  0.66044075  0.77293421  0.50377325    -0.74400
O457        O  0.66206335  0.77293643  0.39897649    -0.63000
O458        O  0.65569174  0.72026462  0.50384880    -0.71400
O459        O  0.74248318  0.71527221  0.51018518    -0.71000
O460        O  0.74939044  0.77421599  0.39371199    -0.62200
O461        O  0.74769774  0.77389370  0.51096388    -0.74700
O462        O  0.74365205  0.71536077  0.39351812    -0.73500
Cu463      Cu  0.65725994  0.74666340  0.45139582     1.04600
Cu464      Cu  0.75030196  0.74459979  0.45210098     1.04300
C465        C  0.69636888  0.70897570  0.37871566     0.92800
C466        C  0.70148567  0.78222973  0.52538524     0.91900
C467        C  0.70351767  0.78259734  0.37859755     0.84100
C468        C  0.69503960  0.70893088  0.52468778     0.90300
O469        O  0.56934752  0.86811907  0.51118458    -0.73400
O470        O  0.45140298  0.87110560  0.39389562    -0.74400
O471        O  0.45064076  0.87047440  0.51038338    -0.63000
O472        O  0.57042522  0.86877735  0.39454808    -0.71400
O473        O  0.56082490  0.82596131  0.39947758    -0.71000
O474        O  0.45297965  0.82743040  0.50391023    -0.62200
O475        O  0.45386730  0.82805005  0.39892083    -0.74700
O476        O  0.56009426  0.82532452  0.50436168    -0.73500
Cu477      Cu  0.51065454  0.87180102  0.45252870     1.04600
Cu478      Cu  0.50689584  0.82591186  0.45161411     1.04300
C479        C  0.58234676  0.84481059  0.52568564     0.92800
C480        C  0.43446251  0.84851020  0.37870488     0.91900
C481        C  0.43359978  0.84778267  0.52480319     0.84100
C482        C  0.58367846  0.84558968  0.37937927     0.90300
O483        O  0.33749073  0.72490548  0.49986717    -0.73400
O484        O  0.34301947  0.78106345  0.40236654    -0.74400
O485        O  0.34271809  0.77738894  0.50686238    -0.63000
O486        O  0.33793172  0.72864604  0.39532661    -0.71400
O487        O  0.25067151  0.72521240  0.39330080    -0.71000
O488        O  0.25633886  0.78463174  0.50861709    -0.62200
O489        O  0.25633090  0.78386091  0.39168405    -0.74700
O490        O  0.25061474  0.72602073  0.51051189    -0.73500
Cu491      Cu  0.34176122  0.75295790  0.45109794     1.04600
Cu492      Cu  0.24891349  0.75503429  0.45103411     1.04300
C493        C  0.29643338  0.71657968  0.52315226     0.92800
C494        C  0.30376323  0.79125111  0.37920009     0.91900
C495        C  0.30350890  0.78977444  0.52550754     0.84100
C496        C  0.29681385  0.71803941  0.37644562     0.90300
O497        O  0.54881162  0.62848675  0.39250989    -0.73400
O498        O  0.42952844  0.63154255  0.50855167    -0.74400
O499        O  0.42977016  0.63139600  0.39233003    -0.63000
O500        O  0.54801041  0.62856910  0.50894300    -0.71400
O501        O  0.54742355  0.67159973  0.50221847    -0.71000
O502        O  0.43855695  0.67419853  0.39946679    -0.62200
O503        O  0.44051855  0.67434978  0.50432516    -0.74700
O504        O  0.54560706  0.67153518  0.39736380    -0.73500
Cu505      Cu  0.48880079  0.62782615  0.45056626     1.04600
Cu506      Cu  0.49312441  0.67371510  0.45081574     1.04300
C507        C  0.56556725  0.65110210  0.37734834     0.92800
C508        C  0.41713779  0.65477959  0.52410195     0.91900
C509        C  0.41618454  0.65469076  0.37832800     0.84100
C510        C  0.56575713  0.65112946  0.52334426     0.90300
O511        O  0.55826222  0.77477899  0.29635095    -0.73400
O512        O  0.44458984  0.72522679  0.29627343    -0.74400
O513        O  0.55168185  0.72222890  0.29609837    -0.63000
O514        O  0.45123128  0.77799033  0.29665456    -0.71400
O515        O  0.44433089  0.78059325  0.21133906    -0.71000
O516        O  0.55902548  0.71959241  0.21081158    -0.62200
O517        O  0.43947034  0.72193695  0.21092865    -0.74700
O518        O  0.56385314  0.77832090  0.21109484    -0.73500
Cu519      Cu  0.50147366  0.75005641  0.29784847     1.04600
Cu520      Cu  0.50170245  0.75011550  0.20667957     1.04300
C521        C  0.57998698  0.78505827  0.25686692     0.92800
C522        C  0.42292681  0.71511791  0.25653845     0.91900
C523        C  0.57270283  0.71164732  0.25653230     0.84100
C524        C  0.43023150  0.78848128  0.25708597     0.90300
C525        C  0.69101085  0.83643843  0.63455670     0.86000
C526        C  0.72201020  0.81719965  0.59684889    -0.54200
C527        C  0.68908276  0.80231029  0.56660109     0.09000
C528        C  0.63031872  0.80817841  0.57675438     0.19900
C529        C  0.65433493  0.85259713  0.59690095    -0.54900
C530        C  0.62225311  0.83739890  0.56653852     0.09100
C531        C  0.65209927  0.81817039  0.66579085    -0.54500
C532        C  0.61977729  0.80344361  0.63472856     0.09600
H533        H  0.76443576  0.81535012  0.59229041     0.14100
H534        H  0.60434621  0.79617558  0.55215730    -0.00100
H535        H  0.65410844  0.87385969  0.59480464     0.14400
H536        H  0.65007567  0.81743952  0.70809926     0.14200
C537        C  0.80672533  0.91144868  0.77133527     0.86000
C538        C  0.84673542  0.92908480  0.73946590    -0.54200
C539        C  0.87905036  0.94421829  0.77020372     0.09000
C540        C  0.86738604  0.94028451  0.82812351     0.19900
C541        C  0.84249748  0.89573841  0.81034722    -0.54900
C542        C  0.87467564  0.91118697  0.83988971     0.09100
C543        C  0.77573570  0.93165030  0.80679436    -0.54500
C544        C  0.80856322  0.94672149  0.83660813     0.09600
H545        H  0.84924953  0.92918928  0.69716836     0.14100
H546        H  0.89325226  0.95240319  0.85262827    -0.00100
H547        H  0.84248349  0.87450733  0.81356078     0.14400
H548        H  0.73340348  0.93480702  0.80870063     0.14200
C549        C  0.67642640  0.65424270  0.63127078     0.86000
C550        C  0.70981681  0.67251881  0.59442448    -0.54200
C551        C  0.67949128  0.68893143  0.56490718     0.09000
C552        C  0.62003168  0.68527081  0.57510199     0.19900
C553        C  0.63960131  0.67331278  0.66355025    -0.54900
C554        C  0.61017085  0.68986673  0.63330049     0.09100
C555        C  0.63635864  0.63974981  0.59377674    -0.54500
C556        C  0.60716391  0.65654262  0.56395431     0.09600
H557        H  0.75297499  0.67228079  0.59221645     0.14100
H558        H  0.59609373  0.69844681  0.55101340    -0.00100
H559        H  0.63750012  0.67357821  0.70587294     0.14400
H560        H  0.62953064  0.61890388  0.59098728     0.14200
C561        C  0.82308645  0.59463861  0.76943649     0.86000
C562        C  0.86354913  0.60961156  0.80595548    -0.54200
C563        C  0.89325890  0.59326321  0.83618284     0.09000
C564        C  0.88003632  0.56441325  0.82688980     0.19900
C565        C  0.85962533  0.57514427  0.73798297    -0.54900
C566        C  0.88909996  0.55895035  0.76896469     0.09100
C567        C  0.78998950  0.57683441  0.80731601    -0.54500
C568        C  0.82062197  0.56091668  0.83757610     0.09600
H569        H  0.87093343  0.63040773  0.80742867     0.14100
H570        H  0.90428078  0.55155557  0.85143313    -0.00100
H571        H  0.86121024  0.57417911  0.69569054     0.14400
H572        H  0.74682216  0.57689638  0.80946606     0.14200
C573        C  0.32184810  0.84432155  0.63215326     0.86000
C574        C  0.36228329  0.85885380  0.59494745    -0.54200
C575        C  0.39169376  0.84215707  0.56501495     0.09000
C576        C  0.37857600  0.81343706  0.57560422     0.19900
C577        C  0.28863671  0.82625355  0.59488489    -0.54900
C578        C  0.31907080  0.80985731  0.56537670     0.09100
C579        C  0.35814730  0.82507535  0.66425241    -0.54500
C580        C  0.38787985  0.80864760  0.63378078     0.09600
H581        H  0.36921058  0.87967951  0.59205644     0.14100
H582        H  0.40269075  0.80039892  0.55118269    -0.00100
H583        H  0.24541543  0.82646912  0.59263563     0.14400
H584        H  0.35962092  0.82458400  0.70655181     0.14200
C585        C  0.17563232  0.90444342  0.77014640     0.86000
C586        C  0.13508239  0.88999431  0.80713632    -0.54200
C587        C  0.10602278  0.90673331  0.83709878     0.09000
C588        C  0.11996234  0.93544492  0.82743195     0.19900
C589        C  0.13975927  0.92411475  0.73859071    -0.54900
C590        C  0.11087052  0.94069325  0.76949661     0.09100
C591        C  0.20947883  0.92215641  0.80777048    -0.54500
C592        C  0.17949007  0.93850804  0.83799441     0.09600
H593        H  0.12783342  0.86920484  0.81006753     0.14100
H594        H  0.09613190  0.94855628  0.85195735    -0.00100
H595        H  0.13800253  0.92479019  0.69631646     0.14400
H596        H  0.25268305  0.92157654  0.81001332     0.14200
C597        C  0.69354240  0.83793022  0.27123348     0.86000
C598        C  0.65496025  0.81954937  0.23964622    -0.54200
C599        C  0.62274177  0.80457090  0.27044723     0.09000
C600        C  0.63302909  0.80926938  0.32842205     0.19900
C601        C  0.65659367  0.85381223  0.30915833    -0.54900
C602        C  0.62457474  0.83842976  0.33911431     0.09100
C603        C  0.72471196  0.81833885  0.30804541    -0.54500
C604        C  0.69178132  0.80334043  0.33837349     0.09600
H605        H  0.65327639  0.81882033  0.19733789     0.14100
H606        H  0.60692672  0.79723703  0.35272691    -0.00100
H607        H  0.65587582  0.87506720  0.31143348     0.14400
H608        H  0.76732374  0.81564750  0.31021944     0.14200
C609        C  0.80649642  0.91210088  0.13044488     0.86000
C610        C  0.77540332  0.93101202  0.09244911    -0.54200
C611        C  0.80836722  0.94575445  0.06189126     0.09000
C612        C  0.86717247  0.94052460  0.07284202     0.19900
C613        C  0.84426809  0.89602785  0.09371623    -0.54900
C614        C  0.87657401  0.91128038  0.06385286     0.09100
C615        C  0.84432125  0.93099121  0.16170472    -0.54500
C616        C  0.87648923  0.94589147  0.13066999     0.09600
H617        H  0.73297828  0.93333096  0.08913350     0.14100
H618        H  0.89322388  0.95260261  0.04836792    -0.00100
H619        H  0.84551016  0.87476056  0.09230579     0.14400
H620        H  0.84557922  0.93210114  0.20398217     0.14200
C621        C  0.30690841  0.66193672  0.63163223     0.86000
C622        C  0.34425790  0.64630954  0.59372389    -0.54200
C623        C  0.37626729  0.66188118  0.56420217     0.09000
C624        C  0.36735644  0.69096513  0.57505148     0.19900
C625        C  0.34504047  0.68026411  0.66367838    -0.54900
C626        C  0.37732537  0.69535905  0.63325125     0.09100
C627        C  0.27569455  0.68143783  0.59467656    -0.54500
C628        C  0.30856727  0.69655009  0.56459888     0.09600
H629        H  0.34523508  0.62506293  0.59108942     0.14100
H630        H  0.39328545  0.70324094  0.55091892    -0.00100
H631        H  0.34686040  0.68064494  0.70599983     0.14400
H632        H  0.23319574  0.68362107  0.59123540     0.14200
C633        C  0.19438662  0.58658584  0.77004350     0.86000
C634        C  0.15841938  0.60274153  0.80832227    -0.54200
C635        C  0.12600618  0.58764196  0.83832567     0.09000
C636        C  0.13300232  0.55839909  0.82741689     0.19900
C637        C  0.22500259  0.56667691  0.80644945    -0.54900
C638        C  0.19165161  0.55179436  0.83651859     0.09100
C639        C  0.15480821  0.56871580  0.73857991    -0.54500
C640        C  0.12181469  0.55422245  0.76947466     0.09600
H641        H  0.15848431  0.62400206  0.81071496     0.14100
H642        H  0.10667642  0.54647460  0.85191591    -0.00100
H643        H  0.26747299  0.56371373  0.80858451     0.14400
H644        H  0.15254522  0.56823572  0.69628598     0.14200
C645        C  0.32367376  0.84484117  0.27036873     0.86000
C646        C  0.36075179  0.82548315  0.23923250    -0.54200
C647        C  0.38986995  0.80924232  0.27038119     0.09000
C648        C  0.37929787  0.81421433  0.32827064     0.19900
C649        C  0.28974355  0.82689090  0.30743309    -0.54900
C650        C  0.31965849  0.81078722  0.33809154     0.09100
C651        C  0.36355308  0.85955642  0.30797034    -0.54500
C652        C  0.39247135  0.84297122  0.33857588     0.09600
H653        H  0.36359434  0.82494583  0.19697597     0.14100
H654        H  0.40283714  0.80105969  0.35277793    -0.00100
H655        H  0.24655161  0.82718771  0.30909208     0.14400
H656        H  0.37082729  0.88039994  0.31005000     0.14200
C657        C  0.17868913  0.90457221  0.12979225     0.86000
C658        C  0.14067884  0.92317304  0.16190528    -0.54200
C659        C  0.11031033  0.93929643  0.13146653     0.09000
C660        C  0.12129913  0.93516156  0.07345177     0.19900
C661        C  0.13950809  0.88979552  0.09166234    -0.54900
C662        C  0.10974230  0.90636814  0.06184878     0.09100
C663        C  0.21153211  0.92334030  0.09353087    -0.54500
C664        C  0.18070245  0.93959236  0.06415858     0.09600
H665        H  0.13808690  0.92324652  0.20418696     0.14100
H666        H  0.09718364  0.94825622  0.04930807    -0.00100
H667        H  0.13334541  0.86896876  0.08861042     0.14400
H668        H  0.25472063  0.92367066  0.09183433     0.14200
C669        C  0.67827137  0.65500354  0.27062846     0.86000
C670        C  0.71147740  0.67279267  0.30849321    -0.54200
C671        C  0.68100817  0.68897495  0.33847024     0.09000
C672        C  0.62154477  0.68547404  0.32795312     0.19900
C673        C  0.63771965  0.64017869  0.30741729    -0.54900
C674        C  0.60813012  0.65670894  0.33768191     0.09100
C675        C  0.64203686  0.67446715  0.23909286    -0.54500
C676        C  0.61225355  0.69061799  0.26999245     0.09600
H677        H  0.75463958  0.67258623  0.31070752     0.14100
H678        H  0.59754951  0.69847866  0.35247932    -0.00100
H679        H  0.63088751  0.61933471  0.30975143     0.14400
H680        H  0.64048790  0.67523591  0.19680962     0.14200
C681        C  0.82393774  0.59653624  0.12931495     0.86000
C682        C  0.79033526  0.57829752  0.09248630    -0.54200
C683        C  0.82054466  0.56190925  0.06259880     0.09000
C684        C  0.88007042  0.56583801  0.07188505     0.19900
C685        C  0.86104309  0.57737574  0.16071462    -0.54900
C686        C  0.89043674  0.56106339  0.12972643     0.09100
C687        C  0.86331260  0.61126454  0.09144819    -0.54500
C688        C  0.89246222  0.59466313  0.06114603     0.09600
H689        H  0.74715028  0.57828444  0.09106496     0.14100
H690        H  0.90399434  0.55278205  0.04737407    -0.00100
H691        H  0.86313868  0.57679586  0.20299270     0.14400
H692        H  0.86928817  0.63212913  0.08787144     0.14200
C693        C  0.30761873  0.66283044  0.26932298     0.86000
C694        C  0.34370357  0.64679546  0.30769582    -0.54200
C695        C  0.37577345  0.66204762  0.33792926     0.09000
C696        C  0.36806134  0.69123558  0.32726596     0.19900
C697        C  0.27646122  0.68243680  0.30613429    -0.54900
C698        C  0.30922581  0.69737443  0.33645416     0.09100
C699        C  0.34732941  0.68090901  0.23824648    -0.54500
C700        C  0.37943342  0.69580604  0.26948436     0.09600
H701        H  0.34388171  0.62554400  0.31005064     0.14100
H702        H  0.39395123  0.70317162  0.35202646    -0.00100
H703        H  0.23390276  0.68485542  0.30937706     0.14400
H704        H  0.34981716  0.68146728  0.19597689     0.14200
C705        C  0.19286742  0.58813919  0.12977869     0.86000
C706        C  0.15377886  0.56979505  0.16103548    -0.54200
C707        C  0.12173086  0.55476014  0.12992736     0.09000
C708        C  0.13221159  0.55968381  0.07210435     0.19900
C709        C  0.22391834  0.56873278  0.09240676    -0.54900
C710        C  0.19103238  0.55384516  0.06203001     0.09100
C711        C  0.15619633  0.60416106  0.09202777    -0.54500
C712        C  0.12377976  0.58892659  0.06226436     0.09600
H713        H  0.15174954  0.56911772  0.20332176     0.14100
H714        H  0.10626378  0.54769543  0.04745288    -0.00100
H715        H  0.26648651  0.56653222  0.08867393     0.14400
H716        H  0.15561317  0.62542430  0.08997289     0.14200
O717        O  0.24883596  0.52310595  0.01049268    -0.73400
O718        O  0.24244929  0.96602336  0.89051694    -0.74400
O719        O  0.24906926  0.52378725  0.89380984    -0.63000
O720        O  0.24261138  0.96516952  0.00711048    -0.71400
O721        O  0.15633677  0.97274779  0.00724580    -0.71000
O722        O  0.16187919  0.51963508  0.89344749    -0.62200
O723        O  0.15581025  0.96795200  0.90273794    -0.74700
O724        O  0.16238049  0.52525389  0.99775072    -0.73500
Cu725      Cu  0.24927289  0.99484792  0.94988534     1.04600
Cu726      Cu  0.15646307  0.99665215  0.95016561     1.04300
C727        C  0.20324420  0.53334766  0.02151585     0.92800
C728        C  0.19516679  0.95810018  0.87899255     0.91900
C729        C  0.20325842  0.53068027  0.87584427     0.84100
C730        C  0.19571791  0.96012133  0.02488702     0.90300
O731        O  0.07184550  0.61955976  0.00602304    -0.73400
O732        O  0.95121421  0.62192736  0.89145338    -0.74400
O733        O  0.95305890  0.62276753  0.00774091    -0.63000
O734        O  0.07040927  0.61876763  0.89010703    -0.71400
O735        O  0.06422145  0.57604202  0.90099401    -0.71000
O736        O  0.95060264  0.57991849  0.99792797    -0.62200
O737        O  0.95761915  0.57891597  0.89386638    -0.74700
O738        O  0.05686220  0.57702310  0.00523559    -0.73500
Cu739      Cu  0.01185948  0.62300696  0.94873690     1.04600
Cu740      Cu  0.00720995  0.57723141  0.94952325     1.04300
C741        C  0.08236012  0.59639597  0.02310650     0.92800
C742        C  0.93607900  0.59920480  0.87517614     0.91900
C743        C  0.93362372  0.60029762  0.02044182     0.84100
C744        C  0.08550022  0.59535423  0.87829211     0.90300
O745        O  0.95068398  0.52913759  0.10352232    -0.73400
O746        O  0.04393912  0.96828507  0.10605098    -0.74400
O747        O  0.93773281  0.97748389  0.10502318    -0.63000
O748        O  0.05782084  0.52449934  0.10345870    -0.71400
O749        O  0.06170677  0.52873383  0.18871258    -0.71000
O750        O  0.93843509  0.97036378  0.18960843    -0.62200
O751        O  0.05822307  0.96905042  0.19058791    -0.74700
O752        O  0.94254278  0.53158796  0.18878916    -0.73500
Cu753      Cu  0.00016613  0.99899368  0.10418402     1.04600
Cu754      Cu  0.99950211  0.99897878  0.19477600     1.04300
C755        C  0.92963275  0.53980609  0.14305546     0.92800
C756        C  0.06868631  0.95945009  0.14520934     0.91900
C757        C  0.91884868  0.96558708  0.14416722     0.84100
C758        C  0.07881968  0.53511908  0.14304973     0.90300
O759        O  0.84470990  0.53016474  0.89947019    -0.73400
O760        O  0.83683053  0.97381298  0.99677250    -0.74400
O761        O  0.83696408  0.97914640  0.89278813    -0.63000
O762        O  0.84420216  0.52928445  0.00415179    -0.71400
O763        O  0.75753486  0.53525006  0.00841309    -0.71000
O764        O  0.74984311  0.97459138  0.89287665    -0.62200
O765        O  0.75016016  0.97539823  0.00929777    -0.74700
O766        O  0.75783748  0.53460248  0.89208077    -0.73500
Cu767      Cu  0.84061865  0.00258382  0.94987944     1.04600
Cu768      Cu  0.75010227  0.50567989  0.95049556     1.04300
C769        C  0.80527795  0.54116222  0.87810147     0.92800
C770        C  0.79601230  0.96566520  0.02068240     0.91900
C771        C  0.79597234  0.96788681  0.87525586     0.84100
C772        C  0.80488583  0.54130341  0.02359331     0.90300
O773        O  0.05464434  0.97431319  0.79557119    -0.73400
O774        O  0.94342752  0.52459054  0.79478107    -0.74400
O775        O  0.94710725  0.97227523  0.79625225    -0.63000
O776        O  0.05065596  0.52828279  0.79493603    -0.71400
O777        O  0.06518531  0.52692322  0.71034790    -0.71000
O778        O  0.93600848  0.97177444  0.71123147    -0.62200
O779        O  0.94603115  0.53140160  0.71015117    -0.74700
O780        O  0.05521958  0.96868861  0.71056070    -0.73500
Cu781      Cu  0.99911624  0.99976900  0.79761043     1.04600
Cu782      Cu  0.00116632  0.49992390  0.70563964     1.05100
C783        C  0.07228390  0.96221110  0.75609969     0.92800
C784        C  0.92743202  0.53731545  0.75553445     0.91900
C785        C  0.92273358  0.96339533  0.75682156     0.84100
C786        C  0.07711808  0.53592534  0.75581284     0.90300
O787        O  0.04302793  0.92147862  0.89584571    -0.73400
O788        O  0.94303832  0.92329217  0.00645010    -0.74400
O789        O  0.04970726  0.92108071  0.00010598    -0.63000
O790        O  0.93638571  0.92355378  0.90212907    -0.71400
O791        O  0.93008106  0.88071799  0.89294663    -0.71000
O792        O  0.04892719  0.87815482  0.00888803    -0.62200
O793        O  0.92979285  0.88062363  0.00871183    -0.74700
O794        O  0.04872359  0.87840141  0.89287320    -0.73500
Cu795      Cu  0.99311564  0.92312883  0.95116579     1.04600
Cu796      Cu  0.98921825  0.87726123  0.95086737     1.04300
C797        C  0.06389563  0.90109592  0.87668558     0.92800
C798        C  0.91833834  0.90384357  0.02499075     0.91900
C799        C  0.06783092  0.90072055  0.02180502     0.84100
C800        C  0.91508285  0.90398124  0.88020286     0.90300
C801        C  0.19487722  0.62470213  0.19701673     0.23100
C802        C  0.22419605  0.60685360  0.16597856    -0.25000
C803        C  0.28041846  0.60809309  0.16931630     0.18000
C804        C  0.30554853  0.62648445  0.20168852     0.23100
C805        C  0.27624434  0.64423335  0.23293150    -0.24900
C806        C  0.22000297  0.64305840  0.22946575     0.18000
F807        F  0.18780842  0.65944291  0.25645793    -0.14900
F808        F  0.14073835  0.62465137  0.19560206    -0.17200
F809        F  0.35968714  0.62671761  0.20273081    -0.17200
F810        F  0.31256617  0.59169563  0.14231445    -0.14900
C811        C  0.78447568  0.64032289  0.16671851     0.23100
C812        C  0.78741796  0.61259305  0.16554559    -0.25000
C813        C  0.75361930  0.59862958  0.19967898     0.18000
C814        C  0.71876342  0.61146581  0.23377821     0.23100
C815        C  0.71535002  0.63914708  0.23458850    -0.24900
C816        C  0.74946511  0.65316321  0.20074755     0.18000
F817        F  0.74917799  0.67983230  0.20060093    -0.14900
F818        F  0.81416082  0.65576136  0.13522047    -0.17200
F819        F  0.69011308  0.59608327  0.26624251    -0.17200
F820        F  0.75425385  0.57197246  0.20021751    -0.14900
C821        C  0.25568494  0.84748742  0.19732013     0.23100
C822        C  0.28734667  0.86105364  0.23402885    -0.25000
C823        C  0.28221963  0.88870058  0.23573702     0.18000
C824        C  0.24789851  0.90191183  0.20163313     0.23100
C825        C  0.21603594  0.88834635  0.16513135    -0.24900
C826        C  0.22179375  0.86072976  0.16283862     0.18000
F827        F  0.19691354  0.84590457  0.12653878    -0.14900
F828        F  0.25751816  0.82087721  0.19449778    -0.17200
F829        F  0.24579064  0.92850735  0.20463436    -0.17200
F830        F  0.30807502  0.90359994  0.27123512    -0.14900
C831        C  0.28148747  0.60787896  0.73304792     0.23100
C832        C  0.22544039  0.60529271  0.73402836    -0.25000
C833        C  0.19568757  0.62191005  0.70096360     0.18000
C834        C  0.22027627  0.64013558  0.66809435     0.23100
C835        C  0.27626591  0.64284221  0.66721672    -0.24900
C836        C  0.30611635  0.62620033  0.70024701     0.18000
F837        F  0.36020142  0.62759466  0.70082075    -0.14900
F838        F  0.31370733  0.59340581  0.76389296    -0.17200
F839        F  0.18790449  0.65448992  0.63724496    -0.17200
F840        F  0.14159897  0.62063577  0.70047593    -0.14900
C841        C  0.78032708  0.85992599  0.23522818     0.23100
C842        C  0.72438149  0.85678716  0.23521478    -0.25000
C843        C  0.69471929  0.87280621  0.20088793     0.18000
C844        C  0.71946316  0.89055910  0.16701221     0.23100
C845        C  0.77546563  0.89351519  0.16673323    -0.24900
C846        C  0.80508362  0.87765732  0.20132207     0.18000
F847        F  0.85912983  0.87927828  0.20241299    -0.14900
F848        F  0.81230205  0.84680606  0.26857014    -0.17200
F849        F  0.68731058  0.90404656  0.13440509    -0.17200
F850        F  0.64065105  0.87137372  0.20006244    -0.14900
C851        C  0.25050520  0.84699828  0.70173681     0.23100
C852        C  0.28467918  0.86060000  0.66734685    -0.25000
C853        C  0.28075351  0.88827987  0.66637246     0.18000
C854        C  0.24600557  0.90153521  0.69993323     0.23100
C855        C  0.21191380  0.88798249  0.73439736    -0.24900
C856        C  0.21469619  0.86022421  0.73433371     0.18000
F857        F  0.18413081  0.84509605  0.76560797    -0.14900
F858        F  0.25135497  0.82035204  0.70369299    -0.17200
F859        F  0.24558115  0.92818075  0.69832065    -0.17200
F860        F  0.30853760  0.90324903  0.63245611    -0.14900
C861        C  0.75377791  0.59703386  0.69752062     0.23100
C862        C  0.78591041  0.61065787  0.73379498    -0.25000
C863        C  0.78038426  0.63825847  0.73598490     0.18000
C864        C  0.74551794  0.65142311  0.70259944     0.23100
C865        C  0.71344654  0.63787648  0.66634850    -0.24900
C866        C  0.71925319  0.61027878  0.66364697     0.18000
F867        F  0.69416728  0.59557473  0.62724991    -0.14900
F868        F  0.75601480  0.57043846  0.69432551    -0.17200
F869        F  0.74332343  0.67800864  0.70587360    -0.17200
F870        F  0.80652036  0.65321606  0.77116055    -0.14900
C871        C  0.69331167  0.87225067  0.70299833     0.23100
C872        C  0.72243264  0.85477166  0.67104985    -0.25000
C873        C  0.77860162  0.85559766  0.67461455     0.18000
C874        C  0.80404834  0.87442612  0.70555370     0.23100
C875        C  0.77500371  0.89240014  0.73646577    -0.24900
C876        C  0.71873268  0.89042832  0.73546747     0.18000
F877        F  0.68681853  0.90521086  0.76618758    -0.14900
F878        F  0.63915782  0.87159907  0.70336159    -0.17200
F879        F  0.85818835  0.87453010  0.70631432    -0.17200
F880        F  0.81028310  0.83798344  0.65024424    -0.14900
loop_ 
_geom_bond_atom_site_label_1 
_geom_bond_atom_site_label_2 
_geom_bond_distance 
_geom_bond_site_symmetry_2 
_ccdc_geom_bond_type 
O1           Cu9   1.901       .  S
O1           C11   1.263       .  A
O2           Cu9   1.899       .  S
O2           C12   1.263       .  A
O3           Cu9   1.902       .  S
O3           C13   1.263       .  A
O4           Cu9   1.899       .  S
O4           C14   1.263       .  A
O5          Cu10   2.123       .  S
O5           C14   1.288       .  A
O6          Cu10   2.123       .  S
O6           C13   1.288       .  A
O7          Cu10   2.123       .  S
O7           C12   1.288       .  A
O8          Cu10   2.121       .  S
O8           C11   1.288       .  A
Cu9         Cu10   2.333       .  S
C11         C114   1.501       .  S
C12         C140   1.503       .  S
C13          C92   1.504       .  S
C14         C186   1.503       .  S
O15         Cu23   1.903       .  S
O15          C25   1.264       .  A
O16         Cu23   1.903       .  S
O16          C26   1.263       .  A
O17         Cu23   1.905       .  S
O17          C27   1.264       .  A
O18         Cu23   1.906       .  S
O18          C28   1.264       .  A
O19         Cu24   2.121       .  S
O19          C28   1.288       .  A
O20         Cu24   2.121       .  S
O20          C27   1.288       .  A
O21         Cu24   2.118       .  S
O21          C26   1.288       .  A
O22         Cu24   2.119       .  S
O22          C25   1.288       .  A
Cu23        Cu24   2.333       .  S
C25         C231   1.502       .  S
C26          C87   1.500       .  S
C27         C164   1.502       .  S
C28         C111   1.504       .  S
O29         Cu37   2.113       .  S
O29          C39   1.287       .  A
O30         Cu37   2.111       .  S
O30          C40   1.287       .  A
O31         Cu37   2.107       .  S
O31          C41   1.287       .  A
O32         Cu37   2.110       .  S
O32          C42   1.287       .  A
O33         Cu38   1.904       .  S
O33          C42   1.264       .  A
O34         Cu38   1.905       .  S
O34          C41   1.264       .  A
O35         Cu38   1.914       .  S
O35          C40   1.265       .  A
O36         Cu38   1.912       .  S
O36          C39   1.265       .  A
Cu37        Cu38   2.328       .  S
C39          C90   1.500       .  S
C40         C212   1.500       .  S
C41         C135   1.496       .  S
C42         C162   1.496       .  S
O43         Cu51   1.900       .  S
O43          C53   1.263       .  A
O44         Cu51   1.898       .  S
O44          C54   1.263       .  A
O45         Cu51   1.901       .  S
O45          C55   1.263       .  A
O46         Cu51   1.901       .  S
O46          C56   1.263       .  A
O47         Cu52   2.115       .  S
O47          C56   1.288       .  A
O48         Cu52   2.121       .  S
O48          C55   1.288       .  A
O49         Cu52   2.118       .  S
O49          C54   1.288       .  A
O50         Cu52   2.117       .  S
O50          C53   1.288       .  A
Cu51        Cu52   2.339       .  S
C53         C188   1.500       .  S
C54         C210   1.500       .  S
C55         C138   1.502       .  S
C56         C258   1.500       .  S
O57         Cu65   2.112       .  S
O57          C67   1.287       .  A
O58         Cu65   2.110       .  S
O58          C68   1.287       .  A
O59         Cu65   2.117       .  S
O59          C69   1.288       .  A
O60         Cu65   2.115       .  S
O60          C70   1.287       .  A
O61         Cu66   1.906       .  S
O61          C70   1.264       .  A
O62         Cu66   1.906       .  S
O62          C69   1.264       .  A
O63         Cu66   1.901       .  S
O63          C68   1.264       .  A
O64         Cu66   1.899       .  S
O64          C67   1.263       .  A
Cu65        Cu66   2.332       .  S
C67         C234   1.495       .  S
C68         C183   1.497       .  S
C69         C255   1.501       .  S
C70         C116   1.500       .  S
O71         Cu79   1.907       .  S
O71          C81   1.264       .  A
O72         Cu79   1.907       .  S
O72          C82   1.264       .  A
O73         Cu79   1.908       .  S
O73          C83   1.264       .  A
O74         Cu79   1.906       .  S
O74          C84   1.264       .  A
O75         Cu80   2.125       .  S
O75          C84   1.288       .  A
O76         Cu80   2.121       .  S
O76          C83   1.288       .  A
O77         Cu80   2.122       .  S
O77          C82   1.288       .  A
O78         Cu80   2.120       .  S
O78          C81   1.288       .  A
Cu79        Cu80   2.326       .  S
C81         C159   1.502       .  S
C82         C260   1.504       .  S
C83         C236   1.502       .  S
C84         C207   1.505       .  S
C85          C86   1.580       .  S
C85          C91   1.572       .  S
C85          C89   1.569       .  S
C85         C432   1.545       .  S
C86          H93   1.075       .  S
C86          C87   1.364       .  D
C87          C88   1.524       .  S
C88          C92   1.529       .  S
C88          C90   1.525       .  S
C88          H94   1.095       .  S
C89          H95   1.085       .  S
C89          C90   1.362       .  D
C91          H96   1.086       .  S
C91          C92   1.366       .  D
C97          C98   1.574       .  S
C97         C103   1.579       .  S
C97         C101   1.568       .  S
C97         C435   1.544       .  S
C98         H105   1.086       .  S
C98          C99   1.367       .  D
C99         C345   1.507       .  S
C99         C100   1.527       .  S
C100        C104   1.527       .  S
C100        C102   1.526       .  S
C100        H106   1.094       .  S
C101        H107   1.085       .  S
C101        C102   1.360       .  D
C102        C360   1.495       .  S
C103        H108   1.076       .  S
C103        C104   1.364       .  D
C104        C331   1.502       .  S
C109        C110   1.569       .  S
C109        C115   1.576       .  S
C109        C113   1.572       .  S
C109        C425   1.541       .  S
C110        H117   1.084       .  S
C110        C111   1.365       .  D
C111        C112   1.527       .  S
C112        C116   1.526       .  S
C112        C114   1.528       .  S
C112        H118   1.095       .  S
C113        H119   1.086       .  S
C113        C114   1.362       .  D
C115        H120   1.080       .  S
C115        C116   1.364       .  D
C121        C122   1.579       .  S
C121        C127   1.567       .  S
C121        C125   1.572       .  S
C121        C422   1.542       .  S
C122        H129   1.078       .  S
C122        C123   1.365       .  D
C123        C302   1.503       .  S
C123        C124   1.527       .  S
C124        C128   1.527       .  S
C124        C126   1.527       .  S
C124        H130   1.094       .  S
C125        H131   1.086       .  S
C125        C126   1.363       .  D
C126        C344   1.502       .  S
C127        H132   1.084       .  S
C127        C128   1.364       .  D
C128        C329   1.501       .  S
C133        C134   1.575       .  S
C133        C139   1.572       .  S
C133        C137   1.572       .  S
C133        C412   1.542       .  S
C134        H141   1.076       .  S
C134        C135   1.359       .  D
C135        C136   1.523       .  S
C136        C140   1.527       .  S
C136        C138   1.527       .  S
C136        H142   1.094       .  S
C137        H143   1.086       .  S
C137        C138   1.364       .  D
C139        H144   1.085       .  S
C139        C140   1.366       .  D
C145        C146   1.575       .  S
C145        C151   1.570       .  S
C145        C149   1.571       .  S
C145        C415   1.541       .  S
C146        H153   1.078       .  S
C146        C147   1.361       .  D
C147        C357   1.496       .  S
C147        C148   1.526       .  S
C148        C152   1.527       .  S
C148        C150   1.528       .  S
C148        H154   1.095       .  S
C149        H155   1.085       .  S
C149        C150   1.365       .  D
C150        C343   1.503       .  S
C151        H156   1.086       .  S
C151        C152   1.362       .  D
C152        C288   1.499       .  S
C157        C158   1.572       .  S
C157        C163   1.580       .  S
C157        C161   1.565       .  S
C157        C402   1.541       .  S
C158        H165   1.086       .  S
C158        C159   1.365       .  D
C159        C160   1.528       .  S
C160        C164   1.526       .  S
C160        C162   1.525       .  S
C160        H166   1.095       .  S
C161        H167   1.085       .  S
C161        C162   1.360       .  D
C163        H168   1.077       .  S
C163        C164   1.365       .  D
C169        C170   1.578       .  S
C169        C175   1.574       .  S
C169        C173   1.567       .  S
C169        C405   1.540       .  S
C170        H177   1.081       .  S
C170        C171   1.365       .  D
C171        C330   1.501       .  S
C171        C172   1.527       .  S
C172        C176   1.526       .  S
C172        C174   1.526       .  S
C172        H178   1.092       .  S
C173        H179   1.085       .  S
C173        C174   1.360       .  D
C174        C358   1.499       .  S
C175        H180   1.086       .  S
C175        C176   1.365       .  D
C176        C317   1.505       .  S
C181        C182   1.568       .  S
C181        C187   1.580       .  S
C181        C185   1.571       .  S
C181        C395   1.543       .  S
C182        H189   1.085       .  S
C182        C183   1.362       .  D
C183        C184   1.526       .  S
C184        C188   1.524       .  S
C184        C186   1.528       .  S
C184        H190   1.094       .  S
C185        H191   1.086       .  S
C185        C186   1.364       .  D
C187        H192   1.075       .  S
C187        C188   1.364       .  D
C193        C194   1.571       .  S
C193        C199   1.574       .  S
C193        C197   1.578       .  S
C193        C392   1.545       .  S
C194        H201   1.085       .  S
C194        C195   1.364       .  D
C195        C304   1.503       .  S
C195        C196   1.528       .  S
C196        C200   1.526       .  S
C196        C198   1.525       .  S
C196        H202   1.093       .  S
C197        H203   1.076       .  S
C197        C198   1.363       .  D
C198        C289   1.502       .  S
C199        H204   1.086       .  S
C199        C200   1.366       .  D
C200        C346   1.506       .  S
C205        C206   1.571       .  S
C205        C211   1.579       .  S
C205        C209   1.570       .  S
C205        C382   1.546       .  S
C206        H213   1.086       .  S
C206        C207   1.366       .  D
C207        C208   1.528       .  S
C208        C212   1.523       .  S
C208        C210   1.528       .  S
C208        H214   1.095       .  S
C209        H215   1.085       .  S
C209        C210   1.363       .  D
C211        H216   1.075       .  S
C211        C212   1.364       .  D
C217        C218   1.573       .  S
C217        C223   1.573       .  S
C217        C221   1.577       .  S
C217        C385   1.547       .  S
C218        H225   1.086       .  S
C218        C219   1.367       .  D
C219        C316   1.503       .  S
C219        C220   1.526       .  S
C220        C224   1.526       .  S
C220        C222   1.526       .  S
C220        H226   1.094       .  S
C221        H227   1.078       .  S
C221        C222   1.362       .  D
C222        C359   1.499       .  S
C223        H228   1.085       .  S
C223        C224   1.364       .  D
C224        C290   1.504       .  S
C229        C230   1.567       .  S
C229        C235   1.573       .  S
C229        C233   1.573       .  S
C229        C375   1.538       .  S
C230        H237   1.084       .  S
C230        C231   1.365       .  D
C231        C232   1.528       .  S
C232        C236   1.528       .  S
C232        C234   1.526       .  S
C232        H238   1.095       .  S
C233        H239   1.081       .  S
C233        C234   1.361       .  D
C235        H240   1.085       .  S
C235        C236   1.364       .  D
C241        C242   1.563       .  S
C241        C247   1.575       .  S
C241        C245   1.573       .  S
C241        C372   1.536       .  S
C242        H249   1.084       .  S
C242        C243   1.361       .  D
C243        C332   1.498       .  S
C243        C244   1.529       .  S
C244        C248   1.528       .  S
C244        C246   1.527       .  S
C244        H250   1.096       .  S
C245        H251   1.085       .  S
C245        C246   1.363       .  D
C246        C315   1.499       .  S
C247        H252   1.081       .  S
C247        C248   1.363       .  D
C248        C303   1.499       .  S
C253        C254   1.569       .  S
C253        C259   1.574       .  S
C253        C257   1.578       .  S
C253        C365   1.545       .  S
C254        H261   1.085       .  S
C254        C255   1.362       .  D
C255        C256   1.526       .  S
C256        C260   1.527       .  S
C256        C258   1.526       .  S
C256        H262   1.094       .  S
C257        H263   1.076       .  S
C257        C258   1.364       .  D
C259        H264   1.086       .  S
C259        C260   1.367       .  D
C265        C266   1.573       .  S
C265        C271   1.566       .  S
C265        C269   1.580       .  S
C265        C362   1.544       .  S
C266        H273   1.086       .  S
C266        C267   1.367       .  D
C267        C318   1.506       .  S
C267        C268   1.528       .  S
C268        C272   1.527       .  S
C268        C270   1.525       .  S
C268        H274   1.095       .  S
C269        H275   1.078       .  S
C269        C270   1.364       .  D
C270        C287   1.501       .  S
C271        H276   1.085       .  S
C271        C272   1.360       .  D
C272        C301   1.498       .  S
O277       Cu725   2.119   1_544  S
O277        C287   1.288       .  A
O278       Cu285   2.118       .  S
O278        C288   1.288       .  A
O279       Cu725   2.118   1_545  S
O279        C289   1.288       .  A
O280       Cu285   2.124   1_554  S
O280        C290   1.288       .  A
O281       Cu286   1.907   1_554  S
O281        C290   1.264       .  A
O282       Cu726   1.906   1_545  S
O282        C289   1.264       .  A
O283       Cu286   1.903       .  S
O283        C288   1.263       .  A
O284       Cu726   1.902   1_545  S
O284        C287   1.263   1_556  A
Cu285       O717   2.123   1_556  S
Cu285       O719   2.122       .  S
Cu285      Cu286   2.327       .  S
Cu286       O722   1.908       .  S
Cu286       O724   1.900       .  S
O291       Cu299   2.115   1_554  S
O291        C301   1.288       .  A
O292       Cu299   2.120   1_655  S
O292        C302   1.288       .  A
O293       Cu299   2.117   1_654  S
O293        C303   1.288       .  A
O294       Cu299   2.123       .  S
O294        C304   1.288       .  A
O295       Cu300   1.898       .  S
O295        C304   1.263       .  A
O296       Cu300   1.900   1_654  S
O296        C303   1.263       .  A
O297       Cu300   1.902   1_655  S
O297        C302   1.263       .  A
O298       Cu300   1.900   1_554  S
O298        C301   1.263       .  A
Cu299      Cu300   2.339       .  S
O305       Cu753   1.914   1_645  S
O305        C315   1.265       .  A
O306       Cu313   1.907   1_455  S
O306        C316   1.265       .  A
O307       Cu313   1.911       .  S
O307        C317   1.265       .  A
O308       Cu753   1.913   1_545  S
O308        C318   1.265       .  A
O309       Cu754   2.121   1_445  S
O309        C318   1.288       .  A
O310       Cu314   2.123       .  S
O310        C317   1.288       .  A
O311       Cu314   2.119   1_455  S
O311        C316   1.287       .  A
O312       Cu754   2.113   1_545  S
O312        C315   1.287       .  A
Cu313       O745   1.906       .  S
Cu313       O748   1.914   1_655  S
Cu313      Cu314   2.337       .  S
Cu314       O749   2.125   1_655  S
Cu314       O752   2.120       .  S
O319       Cu767   1.897       .  S
O319        C329   1.263       .  A
O320       Cu327   1.895   1_554  S
O320        C330   1.263       .  A
O321       Cu327   1.898       .  S
O321        C331   1.262       .  A
O322       Cu767   1.895   1_554  S
O322        C332   1.262       .  A
O323       Cu328   2.118   1_554  S
O323        C332   1.288       .  A
O324       Cu768   2.122       .  S
O324        C331   1.288       .  A
O325       Cu768   2.120   1_554  S
O325        C330   1.287       .  A
O326       Cu328   2.120       .  S
O326        C329   1.288       .  A
Cu327       O759   1.899       .  S
Cu327       O762   1.899   1_556  S
Cu327      Cu768   2.338       .  S
Cu328       O764   2.117   1_545  S
Cu328       O765   2.115   1_546  S
Cu328      Cu767   2.330       .  S
O333       Cu341   1.908       .  S
O333        C343   1.264       .  A
O334       Cu781   1.906   1_545  S
O334        C344   1.264       .  A
O335       Cu341   1.914   1_655  S
O335        C345   1.265       .  A
O336       Cu781   1.911   1_445  S
O336        C346   1.265       .  A
O337       Cu342   2.125   1_445  S
O337        C346   1.288       .  A
O338       Cu782   2.122   1_655  S
O338        C345   1.288       .  A
O339       Cu342   2.121   1_545  S
O339        C344   1.288       .  A
O340       Cu782   2.121       .  S
O340        C343   1.288       .  A
Cu341       O774   1.907   1_455  S
Cu341       O776   1.908       .  S
Cu341      Cu782   2.323       .  S
Cu342       O778   2.125       .  S
Cu342       O780   2.121   1_655  S
Cu342      Cu781   2.332       .  S
O347       Cu355   1.898   1_455  S
O347        C357   1.263       .  A
O348       Cu355   1.894   1_554  S
O348        C358   1.262       .  A
O349       Cu355   1.897   1_454  S
O349        C359   1.262       .  A
O350       Cu355   1.896       .  S
O350        C360   1.262       .  A
O351       Cu356   2.112       .  S
O351        C360   1.287       .  A
O352       Cu356   2.115   1_454  S
O352        C359   1.288       .  A
O353       Cu356   2.117   1_554  S
O353        C358   1.287       .  A
O354       Cu356   2.112   1_455  S
O354        C357   1.288       .  A
Cu355      Cu356   2.339       .  S
C361        C362   1.413       .  A
C361        C366   1.402       .  A
C361        F368   1.359       .  S
C362        C363   1.415       .  A
C363        C364   1.400       .  A
C363        F370   1.351       .  S
C364        C365   1.412       .  A
C364        F369   1.359       .  S
C365        C366   1.417       .  A
C366        F367   1.351       .  S
C371        C372   1.413       .  A
C371        C376   1.399       .  A
C371        F378   1.355       .  S
C372        C373   1.412       .  A
C373        C374   1.398       .  A
C373        F380   1.358       .  S
C374        C375   1.415       .  A
C374        F379   1.355       .  S
C375        C376   1.412       .  A
C376        F377   1.357       .  S
C381        C382   1.412       .  A
C381        C386   1.402       .  A
C381        F388   1.359       .  S
C382        C383   1.416       .  A
C383        C384   1.401       .  A
C383        F390   1.351       .  S
C384        C385   1.412       .  A
C384        F389   1.359       .  S
C385        C386   1.417       .  A
C386        F387   1.351       .  S
C391        C392   1.417       .  A
C391        C396   1.401       .  A
C391        F398   1.351       .  S
C392        C393   1.412       .  A
C393        C394   1.400       .  A
C393        F400   1.359       .  S
C394        C395   1.414       .  A
C394        F399   1.351       .  S
C395        C396   1.413       .  A
C396        F397   1.359       .  S
C401        C402   1.414       .  A
C401        C406   1.399       .  A
C401        F408   1.351       .  S
C402        C403   1.414       .  A
C403        C404   1.401       .  A
C403        F410   1.359       .  S
C404        C405   1.414       .  A
C404        F409   1.352       .  S
C405        C406   1.412       .  A
C406        F407   1.359       .  S
C411        C412   1.411       .  A
C411        C416   1.400       .  A
C411        F418   1.359       .  S
C412        C413   1.416       .  A
C413        C414   1.398       .  A
C413        F420   1.351       .  S
C414        C415   1.411       .  A
C414        F419   1.359       .  S
C415        C416   1.416       .  A
C416        F417   1.351       .  S
C421        C422   1.414       .  A
C421        C426   1.401       .  A
C421        F428   1.358       .  S
C422        C423   1.414       .  A
C423        C424   1.400       .  A
C423        F430   1.353       .  S
C424        C425   1.412       .  A
C424        F429   1.358       .  S
C425        C426   1.414       .  A
C426        F427   1.354       .  S
C431        C432   1.413       .  A
C431        C436   1.402       .  A
C431        F438   1.359       .  S
C432        C433   1.415       .  A
C433        C434   1.400       .  A
C433        F440   1.350       .  S
C434        C435   1.412       .  A
C434        F439   1.359       .  S
C435        C436   1.416       .  A
C436        F437   1.351       .  S
O441       Cu449   1.897       .  S
O441        C451   1.262       .  A
O442       Cu449   1.897       .  S
O442        C452   1.262       .  A
O443       Cu449   1.893       .  S
O443        C453   1.262       .  A
O444       Cu449   1.891       .  S
O444        C454   1.262       .  A
O445       Cu450   2.121       .  S
O445        C454   1.288       .  A
O446       Cu450   2.121       .  S
O446        C453   1.288       .  A
O447       Cu450   2.128       .  S
O447        C452   1.289       .  A
O448       Cu450   2.131       .  S
O448        C451   1.289       .  A
Cu449      Cu450   2.335       .  S
C451        C554   1.506       .  S
C452        C580   1.504       .  S
C453        C532   1.500       .  S
C454        C626   1.500       .  S
O455       Cu463   1.894       .  S
O455        C465   1.262       .  A
O456       Cu463   1.897       .  S
O456        C466   1.262       .  A
O457       Cu463   1.902       .  S
O457        C467   1.263       .  A
O458       Cu463   1.904       .  S
O458        C468   1.264       .  A
O459       Cu464   2.120       .  S
O459        C468   1.288       .  A
O460       Cu464   2.128       .  S
O460        C467   1.288       .  A
O461       Cu464   2.122       .  S
O461        C466   1.288       .  A
O462       Cu464   2.121       .  S
O462        C465   1.288       .  A
Cu463      Cu464   2.337       .  S
C465        C671   1.500       .  S
C466        C527   1.502       .  S
C467        C604   1.507       .  S
C468        C551   1.502       .  S
O469       Cu477   2.115       .  S
O469        C479   1.288       .  A
O470       Cu477   2.116       .  S
O470        C480   1.288       .  A
O471       Cu477   2.113       .  S
O471        C481   1.288       .  A
O472       Cu477   2.115       .  S
O472        C482   1.287       .  A
O473       Cu478   1.900       .  S
O473        C482   1.263       .  A
O474       Cu478   1.904       .  S
O474        C481   1.264       .  A
O475       Cu478   1.901       .  S
O475        C480   1.263       .  A
O476       Cu478   1.902       .  S
O476        C479   1.263       .  A
Cu477      Cu478   2.341       .  S
C479        C530   1.499       .  S
C480        C652   1.500       .  S
C481        C575   1.499       .  S
C482        C602   1.499       .  S
O483       Cu491   1.904       .  S
O483        C493   1.263       .  A
O484       Cu491   1.902       .  S
O484        C494   1.263       .  A
O485       Cu491   1.895       .  S
O485        C495   1.262       .  A
O486       Cu491   1.893       .  S
O486        C496   1.262       .  A
O487       Cu492   2.120       .  S
O487        C496   1.288       .  A
O488       Cu492   2.117       .  S
O488        C495   1.288       .  A
O489       Cu492   2.125       .  S
O489        C494   1.288       .  A
O490       Cu492   2.126       .  S
O490        C493   1.289       .  A
Cu491      Cu492   2.332       .  S
C493        C628   1.506       .  S
C494        C650   1.504       .  S
C495        C578   1.498       .  S
C496        C698   1.501       .  S
O497       Cu505   2.116       .  S
O497        C507   1.287       .  A
O498       Cu505   2.109       .  S
O498        C508   1.287       .  A
O499       Cu505   2.113       .  S
O499        C509   1.287       .  A
O500       Cu505   2.111       .  S
O500        C510   1.287       .  A
O501       Cu506   1.900       .  S
O501        C510   1.263       .  A
O502       Cu506   1.901       .  S
O502        C509   1.264       .  A
O503       Cu506   1.902       .  S
O503        C508   1.264       .  A
O504       Cu506   1.902       .  S
O504        C507   1.263       .  A
Cu505      Cu506   2.341       .  S
C507        C674   1.501       .  S
C508        C623   1.495       .  S
C509        C695   1.499       .  S
C510        C556   1.497       .  S
O511       Cu519   1.903       .  S
O511        C521   1.263       .  A
O512       Cu519   1.908       .  S
O512        C522   1.264       .  A
O513       Cu519   1.898       .  S
O513        C523   1.263       .  A
O514       Cu519   1.902       .  S
O514        C524   1.263       .  A
O515       Cu520   2.121       .  S
O515        C524   1.288       .  A
O516       Cu520   2.122       .  S
O516        C523   1.288       .  A
O517       Cu520   2.124       .  S
O517        C522   1.288       .  A
O518       Cu520   2.124       .  S
O518        C521   1.288       .  A
Cu519      Cu520   2.337       .  S
C521        C599   1.504       .  S
C522        C700   1.507       .  S
C523        C676   1.502       .  S
C524        C647   1.503       .  S
C525        C526   1.580       .  S
C525        C531   1.569       .  S
C525        C529   1.569       .  S
C525        C872   1.539       .  S
C526        H533   1.075       .  S
C526        C527   1.364       .  D
C527        C528   1.526       .  S
C528        C532   1.529       .  S
C528        C530   1.526       .  S
C528        H534   1.094       .  S
C529        H535   1.085       .  S
C529        C530   1.362       .  D
C531        H536   1.086       .  S
C531        C532   1.362       .  D
C537        C538   1.576       .  S
C537        C543   1.577       .  S
C537        C541   1.566       .  S
C537        C875   1.541       .  S
C538        H545   1.086       .  S
C538        C539   1.369       .  D
C539        C785   1.508       .  S
C539        C540   1.526       .  S
C540        C544   1.527       .  S
C540        C542   1.525       .  S
C540        H546   1.094       .  S
C541        H547   1.085       .  S
C541        C542   1.359       .  D
C542        C800   1.495       .  S
C543        H548   1.075       .  S
C543        C544   1.361       .  D
C544        C771   1.497       .  S
C549        C550   1.569       .  S
C549        C555   1.575       .  S
C549        C553   1.574       .  S
C549        C865   1.540       .  S
C550        H557   1.084       .  S
C550        C551   1.362       .  D
C551        C552   1.526       .  S
C552        C556   1.526       .  S
C552        C554   1.530       .  S
C552        H558   1.094       .  S
C553        H559   1.086       .  S
C553        C554   1.365       .  D
C555        H560   1.078       .  S
C555        C556   1.363       .  D
C561        C562   1.578       .  S
C561        C567   1.567       .  S
C561        C565   1.573       .  S
C561        C862   1.542       .  S
C562        H569   1.077       .  S
C562        C563   1.362       .  D
C563        C742   1.499       .  S
C563        C564   1.526       .  S
C564        C568   1.526       .  S
C564        C566   1.527       .  S
C564        H570   1.095       .  S
C565        H571   1.086       .  S
C565        C566   1.365       .  D
C566        C784   1.502       .  S
C567        H572   1.085       .  S
C567        C568   1.362       .  D
C568        C769   1.498       .  S
C573        C574   1.577       .  S
C573        C579   1.573       .  S
C573        C577   1.567       .  S
C573        C852   1.539       .  S
C574        H581   1.078       .  S
C574        C575   1.362       .  D
C575        C576   1.525       .  S
C576        C580   1.530       .  S
C576        C578   1.527       .  S
C576        H582   1.094       .  S
C577        H583   1.086       .  S
C577        C578   1.360       .  D
C579        H584   1.085       .  S
C579        C580   1.365       .  D
C585        C586   1.573       .  S
C585        C591   1.571       .  S
C585        C589   1.573       .  S
C585        C855   1.539       .  S
C586        H593   1.078       .  S
C586        C587   1.359       .  D
C587        C797   1.492       .  S
C587        C588   1.525       .  S
C588        C592   1.527       .  S
C588        C590   1.527       .  S
C588        H594   1.094       .  S
C589        H595   1.085       .  S
C589        C590   1.365       .  D
C590        C783   1.504       .  S
C591        H596   1.086       .  S
C591        C592   1.363       .  D
C592        C728   1.502       .  S
C597        C598   1.572       .  S
C597        C603   1.583       .  S
C597        C601   1.567       .  S
C597        C842   1.541       .  S
C598        H605   1.086       .  S
C598        C599   1.364       .  D
C599        C600   1.527       .  S
C600        C604   1.527       .  S
C600        C602   1.526       .  S
C600        H606   1.092       .  S
C601        H607   1.085       .  S
C601        C602   1.360       .  D
C603        H608   1.080       .  S
C603        C604   1.368       .  D
C609        C610   1.579       .  S
C609        C615   1.572       .  S
C609        C613   1.565       .  S
C609        C845   1.539       .  S
C610        H617   1.075       .  S
C610        C611   1.364       .  D
C611        C770   1.499       .  S
C611        C612   1.526       .  S
C612        C616   1.525       .  S
C612        C614   1.526       .  S
C612        H618   1.095       .  S
C613        H619   1.085       .  S
C613        C614   1.359       .  D
C614        C798   1.493       .  S
C615        H620   1.086       .  S
C615        C616   1.364       .  D
C616        C757   1.502       .  S
C621        C622   1.566       .  S
C621        C627   1.583       .  S
C621        C625   1.570       .  S
C621        C835   1.540       .  S
C622        H629   1.085       .  S
C622        C623   1.359       .  D
C623        C624   1.524       .  S
C624        C628   1.527       .  S
C624        C626   1.529       .  S
C624        H630   1.094       .  S
C625        H631   1.086       .  S
C625        C626   1.362       .  D
C627        H632   1.076       .  S
C627        C628   1.367       .  D
C633        C634   1.565       .  S
C633        C639   1.571       .  S
C633        C637   1.580       .  S
C633        C832   1.539       .  S
C634        H641   1.085       .  S
C634        C635   1.358       .  D
C635        C744   1.494       .  S
C635        C636   1.526       .  S
C636        C640   1.527       .  S
C636        C638   1.528       .  S
C636        H642   1.095       .  S
C637        H643   1.078       .  S
C637        C638   1.367       .  D
C638        C729   1.505       .  S
C639        H644   1.086       .  S
C639        C640   1.363       .  D
C640        C786   1.500       .  S
C645        C646   1.572       .  S
C645        C651   1.579       .  S
C645        C649   1.570       .  S
C645        C822   1.545       .  S
C646        H653   1.086       .  S
C646        C647   1.364       .  D
C647        C648   1.528       .  S
C648        C652   1.525       .  S
C648        C650   1.527       .  S
C648        H654   1.094       .  S
C649        H655   1.085       .  S
C649        C650   1.363       .  D
C651        H656   1.079       .  S
C651        C652   1.364       .  D
C657        C658   1.575       .  S
C657        C663   1.568       .  S
C657        C661   1.578       .  S
C657        C825   1.545       .  S
C658        H665   1.086       .  S
C658        C659   1.367       .  D
C659        C756   1.506       .  S
C659        C660   1.526       .  S
C660        C664   1.526       .  S
C660        C662   1.525       .  S
C660        H666   1.094       .  S
C661        H667   1.075       .  S
C661        C662   1.364       .  D
C662        C799   1.499       .  S
C663        H668   1.085       .  S
C663        C664   1.362       .  D
C664        C730   1.501       .  S
C669        C670   1.568       .  S
C669        C675   1.572       .  S
C669        C673   1.579       .  S
C669        C815   1.539       .  S
C670        H677   1.085       .  S
C670        C671   1.361       .  D
C671        C672   1.527       .  S
C672        C676   1.528       .  S
C672        C674   1.525       .  S
C672        H678   1.093       .  S
C673        H679   1.078       .  S
C673        C674   1.363       .  D
C675        H680   1.085       .  S
C675        C676   1.364       .  D
C681        C682   1.571       .  S
C681        C687   1.575       .  S
C681        C685   1.573       .  S
C681        C812   1.538       .  S
C682        H689   1.084       .  S
C682        C683   1.362       .  D
C683        C772   1.502       .  S
C683        C684   1.526       .  S
C684        C688   1.527       .  S
C684        C686   1.526       .  S
C684        H690   1.093       .  S
C685        H691   1.086       .  S
C685        C686   1.365       .  D
C686        C755   1.504       .  S
C687        H692   1.078       .  S
C687        C688   1.360       .  D
C688        C743   1.495       .  S
C693        C694   1.569       .  S
C693        C699   1.573       .  S
C693        C697   1.580       .  S
C693        C805   1.545       .  S
C694        H701   1.085       .  S
C694        C695   1.361       .  D
C695        C696   1.525       .  S
C696        C700   1.526       .  S
C696        C698   1.527       .  S
C696        H702   1.093       .  S
C697        H703   1.078       .  S
C697        C698   1.364       .  D
C699        H704   1.086       .  S
C699        C700   1.366       .  D
C705        C706   1.574       .  S
C705        C711   1.567       .  S
C705        C709   1.580       .  S
C705        C802   1.546       .  S
C706        H713   1.086       .  S
C706        C707   1.368       .  D
C707        C758   1.508       .  S
C707        C708   1.526       .  S
C708        C712   1.527       .  S
C708        C710   1.527       .  S
C708        H714   1.094       .  S
C709        H715   1.078       .  S
C709        C710   1.365       .  D
C710        C727   1.503       .  S
C711        H716   1.085       .  S
C711        C712   1.359       .  D
C712        C741   1.496       .  S
O717        C727   1.288       .  A
O718       Cu725   2.121       .  S
O718        C728   1.288       .  A
O719        C729   1.288       .  A
O720       Cu725   2.115   1_554  S
O720        C730   1.287       .  A
O721       Cu726   1.906   1_554  S
O721        C730   1.264       .  A
O722        C729   1.264       .  A
O723       Cu726   1.901       .  S
O723        C728   1.263       .  A
O724        C727   1.263   1_556  A
Cu725      Cu726   2.331       .  S
O731       Cu739   2.112   1_554  S
O731        C741   1.287       .  A
O732       Cu739   2.117   1_655  S
O732        C742   1.288       .  A
O733       Cu739   2.111   1_654  S
O733        C743   1.287       .  A
O734       Cu739   2.111       .  S
O734        C744   1.288       .  A
O735       Cu740   1.895       .  S
O735        C744   1.262       .  A
O736       Cu740   1.889   1_655  S
O736        C743   1.261   1_556  A
O737       Cu740   1.897   1_655  S
O737        C742   1.262       .  A
O738       Cu740   1.897   1_554  S
O738        C741   1.262       .  A
Cu739      Cu740   2.336       .  S
O745        C755   1.264       .  A
O746       Cu753   1.913       .  S
O746        C756   1.265       .  A
O747       Cu753   1.912   1_655  S
O747        C757   1.265       .  A
O748        C758   1.265       .  A
O749        C758   1.288       .  A
O750       Cu754   2.120       .  S
O750        C757   1.288       .  A
O751       Cu754   2.123   1_455  S
O751        C756   1.288       .  A
O752        C755   1.288       .  A
Cu753      Cu754   2.322   1_455  S
O759        C769   1.263       .  A
O760       Cu767   1.900   1_565  S
O760        C770   1.263   1_556  A
O761       Cu767   1.890   1_565  S
O761        C771   1.261       .  A
O762        C772   1.263       .  A
O763       Cu768   2.122   1_554  S
O763        C772   1.288       .  A
O764        C771   1.288       .  A
O765        C770   1.287       .  A
O766       Cu768   2.112       .  S
O766        C769   1.287       .  A
O773       Cu781   1.905   1_455  S
O773        C783   1.264       .  A
O774        C784   1.264       .  A
O775       Cu781   1.915       .  S
O775        C785   1.265       .  A
O776        C786   1.264       .  A
O777       Cu782   2.119       .  S
O777        C786   1.288       .  A
O778        C785   1.288       .  A
O779       Cu782   2.121   1_655  S
O779        C784   1.288       .  A
O780        C783   1.288       .  A
O787       Cu795   1.892   1_455  S
O787        C797   1.262       .  A
O788       Cu795   1.892   1_554  S
O788        C798   1.262       .  A
O789       Cu795   1.900   1_454  S
O789        C799   1.263       .  A
O790       Cu795   1.901       .  S
O790        C800   1.263       .  A
O791       Cu796   2.109       .  S
O791        C800   1.287       .  A
O792       Cu796   2.114   1_454  S
O792        C799   1.287       .  A
O793       Cu796   2.108   1_554  S
O793        C798   1.287       .  A
O794       Cu796   2.106   1_455  S
O794        C797   1.287       .  A
Cu795      Cu796   2.340       .  S
C801        C802   1.413       .  A
C801        C806   1.402       .  A
C801        F808   1.359       .  S
C802        C803   1.415       .  A
C803        C804   1.402       .  A
C803        F810   1.351       .  S
C804        C805   1.413       .  A
C804        F809   1.359       .  S
C805        C806   1.415       .  A
C806        F807   1.351       .  S
C811        C812   1.416       .  A
C811        C816   1.399       .  A
C811        F818   1.351       .  S
C812        C813   1.411       .  A
C813        C814   1.397       .  A
C813        F820   1.359       .  S
C814        C815   1.414       .  A
C814        F819   1.351       .  S
C815        C816   1.412       .  A
C816        F817   1.359       .  S
C821        C822   1.413       .  A
C821        C826   1.402       .  A
C821        F828   1.359       .  S
C822        C823   1.416       .  A
C823        C824   1.401       .  A
C823        F830   1.351       .  S
C824        C825   1.412       .  A
C824        F829   1.359       .  S
C825        C826   1.416       .  A
C826        F827   1.351       .  S
C831        C832   1.413       .  A
C831        C836   1.401       .  A
C831        F838   1.352       .  S
C832        C833   1.413       .  A
C833        C834   1.398       .  A
C833        F840   1.359       .  S
C834        C835   1.412       .  A
C834        F839   1.351       .  S
C835        C836   1.415       .  A
C836        F837   1.359       .  S
C841        C842   1.413       .  A
C841        C846   1.399       .  A
C841        F848   1.351       .  S
C842        C843   1.414       .  A
C843        C844   1.400       .  A
C843        F850   1.359       .  S
C844        C845   1.413       .  A
C844        F849   1.352       .  S
C845        C846   1.413       .  A
C846        F847   1.359       .  S
C851        C852   1.411       .  A
C851        C856   1.398       .  A
C851        F858   1.359       .  S
C852        C853   1.415       .  A
C853        C854   1.397       .  A
C853        F860   1.351       .  S
C854        C855   1.410       .  A
C854        F859   1.359       .  S
C855        C856   1.417       .  A
C856        F857   1.351       .  S
C861        C862   1.413       .  A
C861        C866   1.402       .  A
C861        F868   1.359       .  S
C862        C863   1.415       .  A
C863        C864   1.397       .  A
C863        F870   1.351       .  S
C864        C865   1.410       .  A
C864        F869   1.359       .  S
C865        C866   1.416       .  A
C866        F867   1.352       .  S
C871        C872   1.412       .  A
C871        C876   1.399       .  A
C871        F878   1.359       .  S
C872        C873   1.413       .  A
C873        C874   1.399       .  A
C873        F880   1.351       .  S
C874        C875   1.412       .  A
C874        F879   1.359       .  S
C875        C876   1.416       .  A
C876        F877   1.351       .  S
