geometry optimzed in LAMMPS
_audit_creation_date              2020-11-30 
_audit_creation_method            'lammps2cif' 
_symmetry_space_group_name_H-M    'P1' 
_symmetry_Int_Tables_number       1 
_symmetry_cell_setting            triclinic 
loop_ 
_symmetry_equiv_pos_as_xyz 
  x,y,z 
_cell_length_a                    24.887931345132245 
_cell_length_b                    24.70658877443543 
_cell_length_c                    24.765479127693784 
_cell_angle_alpha                 91.88813348132514 
_cell_angle_beta                  90.54982339163153 
_cell_angle_gamma                 91.07829964710388 
loop_ 
_atom_site_label 
_atom_site_type_symbol 
_atom_site_fract_x 
_atom_site_fract_y 
_atom_site_fract_z 
_atom_site_charge 
C1          C  0.87856549  0.28695833  0.49361777    -0.01200
C2          C  0.87765010  0.48426501  0.32299711    -0.01200
C3          C  0.86385903  0.47658201  0.69086110    -0.01200
C4          C  0.87494644  0.65707711  0.51672169    -0.01200
O5          O  0.91277286  0.46644180  0.58979955    -0.73140
O6          O  0.92121665  0.47868238  0.42214072    -0.73170
O7          O  0.91851141  0.55728320  0.50944918    -0.73230
O8          O  0.91988039  0.38918872  0.49355892    -0.73280
O9          O  0.83344879  0.38704419  0.49607578    -0.73210
O10         O  0.83194099  0.55557233  0.50810058    -0.73190
O11         O  0.83375207  0.47558860  0.41967612    -0.73160
O12         O  0.82632469  0.47060779  0.58666337    -0.73230
Ni13       Ni  0.92077257  0.47291737  0.50461910     1.25410
Ni14       Ni  0.82872738  0.47169654  0.50240223     1.25360
C15         C  0.86857089  0.47015435  0.61879203     0.89040
C16         C  0.87807203  0.47959213  0.39189757     0.88970
C17         C  0.87518979  0.58641924  0.51068430     0.89000
C18         C  0.87715331  0.35796021  0.49384109     0.89170
C19         C  0.33665064  0.81823081  0.49493152    -0.01200
C20         C  0.51555726  0.80456998  0.31488257    -0.01200
C21         C  0.51338847  0.80671288  0.68985799    -0.01200
C22         C  0.70153013  0.81753215  0.50235839    -0.01200
O23         O  0.51957864  0.85700328  0.58984436    -0.73140
O24         O  0.51549117  0.85295072  0.41751195    -0.73170
O25         O  0.43838618  0.85359337  0.50393981    -0.73230
O26         O  0.60132599  0.85710353  0.50211111    -0.73280
O27         O  0.60175891  0.76975169  0.50365040    -0.73210
O28         O  0.43365946  0.76723458  0.49855311    -0.73190
O29         O  0.51791774  0.76507589  0.41648828    -0.73160
O30         O  0.51683831  0.76918382  0.58578388    -0.73230
Ni31       Ni  0.51901281  0.85767035  0.50344700     1.25410
Ni32       Ni  0.51767579  0.76502943  0.50122120     1.25360
C33         C  0.51825083  0.81272450  0.61837321     0.89040
C34         C  0.51571380  0.80821144  0.38666771     0.88970
C35         C  0.40642916  0.81236416  0.49958622     0.89000
C36         C  0.63125433  0.81445574  0.50310902     0.89170
C37         C  0.50430649  0.26403397  0.85934218    -0.01200
C38         C  0.33577652  0.45587163  0.84869988    -0.01200
C39         C  0.70549593  0.44544676  0.84007837    -0.01200
C40         C  0.51638824  0.63392021  0.83363642    -0.01200
O41         O  0.52291399  0.53807273  0.88321600    -0.73140
O42         O  0.51660439  0.37025595  0.89978187    -0.73170
O43         O  0.60525649  0.45215421  0.88780636    -0.73230
O44         O  0.43646185  0.45782218  0.89441753    -0.73280
O45         O  0.43430056  0.44691359  0.80656403    -0.73210
O46         O  0.60182807  0.44337180  0.80070210    -0.73190
O47         O  0.51586893  0.36173468  0.81303941    -0.73160
O48         O  0.51799917  0.52920043  0.79566054    -0.73230
Ni49       Ni  0.52078038  0.45488229  0.89395771     1.25410
Ni50       Ni  0.51759662  0.44488748  0.80148534     1.25360
C51         C  0.51932728  0.56337295  0.83751968     0.89040
C52         C  0.51291911  0.33573713  0.85843569     0.88970
C53         C  0.63389321  0.44743246  0.84322703     0.89000
C54         C  0.40590367  0.45413276  0.85071106     0.89170
C55         C  0.36106710  0.96859152  0.80468098    -0.01200
C56         C  0.39077663  0.77843193  0.00081360    -0.01200
C57         C  0.36287937  0.14172652  0.01251623    -0.01200
C58         C  0.36873894  0.95186840  0.18509894    -0.01200
O59         O  0.41141575  0.96899986  0.90837800    -0.73140
O60         O  0.41800501  0.96246065  0.08256818    -0.73170
O61         O  0.42580629  0.88218096  0.99172522    -0.73230
O62         O  0.41148897  0.04773219  0.00068018    -0.73280
O63         O  0.32439618  0.03978539  0.00428378    -0.73210
O64         O  0.33879264  0.87296173  0.99222918    -0.73190
O65         O  0.33103781  0.95363316  0.08127907    -0.73160
O66         O  0.32465033  0.96100087  0.91091243    -0.73230
Ni67       Ni  0.41931468  0.96551307  0.99547367     1.25410
Ni68       Ni  0.32724501  0.95639421  0.99677543     1.25360
C69         C  0.36611238  0.96783676  0.87857534     0.89040
C70         C  0.37413151  0.95702334  0.11265622     0.88970
C71         C  0.38528750  0.84819436  0.99407854     0.89000
C72         C  0.36623055  0.07280349  0.00553847     0.89170
C73         C  0.02847248  0.62364639  0.82083721    -0.01200
C74         C  0.84834105  0.60642186  0.99732025    -0.01200
C75         C  0.20897477  0.62006994  0.99686293    -0.01200
C76         C  0.03494817  0.62138162  0.18282734    -0.01200
O77         O  0.03016562  0.57520608  0.91499805    -0.73140
O78         O  0.02822582  0.57384755  0.08245796    -0.73170
O79         O  0.94789409  0.57191327  0.99270573    -0.73230
O80         O  0.10972723  0.58139166  0.00031292    -0.73280
O81         O  0.11171315  0.66825811  0.99970832    -0.73210
O82         O  0.94454677  0.65885263  0.00610832    -0.73190
O83         O  0.03166122  0.66232118  0.08562205    -0.73160
O84         O  0.02533670  0.66335190  0.92037811    -0.73230
Ni85       Ni  0.02909223  0.57295171  0.99792533     1.25410
Ni86       Ni  0.02801165  0.66614338  0.00305790     1.25360
C87         C  0.02824891  0.61998465  0.88890324     0.89040
C88         C  0.03102547  0.61798998  0.11334236     0.88970
C89         C  0.91709911  0.61318267  0.99934957     0.89000
C90         C  0.14000411  0.62412032  0.99880112     0.89170
C91         C  0.67385694  0.76487106  0.97884758    -0.01200
C92         C  0.66598673  0.95991422  0.82289809    -0.01200
C93         C  0.66824683  0.13045856  0.00258853    -0.01200
C94         C  0.66755873  0.94997319  0.17603895    -0.01200
O95         O  0.63362128  0.95616563  0.92126364    -0.73140
O96         O  0.63082790  0.93582349  0.07861935    -0.73170
O97         O  0.63173879  0.02819433  0.00865270    -0.73230
O98         O  0.63170498  0.86345428  0.98874037    -0.73280
O99         O  0.71898226  0.86552993  0.99135096    -0.73210
O100        O  0.71761076  0.03391894  0.99795538    -0.73190
O101        O  0.71616661  0.95192420  0.08010830    -0.73160
O102        O  0.71933151  0.95211432  0.91512966    -0.73230
Ni103      Ni  0.62953646  0.94578374  0.99927240     1.25410
Ni104      Ni  0.72144675  0.95038252  0.99693066     1.25360
C105        C  0.67401152  0.95830860  0.88996588     0.89040
C106        C  0.67252569  0.94563110  0.10827724     0.88970
C107        C  0.67301572  0.06061653  0.00314374     0.89000
C108        C  0.67501117  0.83502372  0.98559986     0.89170
C109        C  0.34638369  0.46447466  0.15052946    -0.01200
C110        C  0.52523246  0.28040670  0.15072101    -0.01200
C111        C  0.54397723  0.64427739  0.15152474    -0.01200
C112        C  0.71017777  0.45417294  0.15359441    -0.01200
O113        O  0.53921111  0.54681811  0.19691974    -0.73140
O114        O  0.52402938  0.38014449  0.19421254    -0.73170
O115        O  0.61211810  0.45656156  0.19788384    -0.73230
O116        O  0.44647856  0.47023555  0.19551083    -0.73280
O117        O  0.44677510  0.46193568  0.10888641    -0.73210
O118        O  0.61137802  0.46709570  0.11242062    -0.73190
O119        O  0.52829507  0.37837868  0.10624410    -0.73160
O120        O  0.52878742  0.54406416  0.11043518    -0.73230
Ni121      Ni  0.52996382  0.46361834  0.19914355     1.25410
Ni122      Ni  0.52890914  0.46245106  0.10684792     1.25360
C123        C  0.53616863  0.57487920  0.15308394     0.89040
C124        C  0.52646374  0.34990172  0.14959234     0.88970
C125        C  0.64117117  0.46072654  0.15484873     0.89000
C126        C  0.41678199  0.46689872  0.15143540     0.89170
C127        C  0.83105821  0.30659373  0.00042974    -0.01200
C128        C  0.00539226  0.31570689  0.82102433    -0.01200
C129        C  0.20263420  0.30625643  0.99867708    -0.01200
C130        C  0.01612070  0.31886298  0.19046903    -0.01200
O131        O  0.01460502  0.35246383  0.92552376    -0.73140
O132        O  0.01329537  0.35442437  0.08873352    -0.73170
O133        O  0.10043908  0.35049962  0.00850956    -0.73230
O134        O  0.93116706  0.35369343  0.00598014    -0.73280
O135        O  0.93119714  0.26545586  0.00587961    -0.73210
O136        O  0.10003236  0.26348709  0.00126282    -0.73190
O137        O  0.02107650  0.26866861  0.08902665    -0.73160
O138        O  0.01072226  0.26571464  0.91905416    -0.73230
Ni139      Ni  0.01543018  0.35513223  0.00722750     1.25410
Ni140      Ni  0.01555148  0.26283338  0.00396143     1.25360
C141        C  0.01040092  0.31109741  0.89221332     0.89040
C142        C  0.01765501  0.31333953  0.11920843     0.88970
C143        C  0.13085414  0.30735969  0.00426411     0.89000
C144        C  0.90141417  0.30914529  0.00531193     0.89170
C145        C  0.83953245  0.97849004  0.66211303    -0.01200
C146        C  0.03063598  0.79374833  0.66910423    -0.01200
C147        C  0.03082523  0.16158742  0.65108488    -0.01200
C148        C  0.20081029  0.97959180  0.63277696    -0.01200
O149        O  0.02871364  0.89724479  0.70534425    -0.73140
O150        O  0.02990408  0.06336950  0.69445462    -0.73170
O151        O  0.94254486  0.97966687  0.70409967    -0.73230
O152        O  0.10918712  0.97943988  0.68659279    -0.73280
O153        O  0.10000159  0.97207248  0.59888973    -0.73210
O154        O  0.93699528  0.97402600  0.61645855    -0.73190
O155        O  0.02091313  0.05762442  0.60706731    -0.73160
O156        O  0.02205244  0.88968595  0.61814866    -0.73230
Ni157      Ni  0.02751157  0.98027185  0.70037716     1.25410
Ni158      Ni  0.01915499  0.97296982  0.60759228     1.25360
C159        C  0.02814940  0.86386623  0.66358007     0.89040
C160        C  0.02717641  0.09037385  0.64989458     0.88970
C161        C  0.91005195  0.97722723  0.66137729     0.89000
C162        C  0.13310128  0.97613281  0.63935555     0.89170
C163        C  0.17336293  0.28731831  0.48660451    -0.01200
C164        C  0.18543199  0.47248755  0.31503866    -0.01200
C165        C  0.17271320  0.46899742  0.68410232    -0.01200
C166        C  0.17768365  0.65632766  0.50135857    -0.01200
O167        O  0.13616658  0.46988118  0.58065010    -0.73140
O168        O  0.14476682  0.48501909  0.41584497    -0.73170
O169        O  0.13651428  0.39020109  0.49109327    -0.73230
O170        O  0.13992595  0.55551964  0.50674648    -0.73280
O171        O  0.22632976  0.55721511  0.50179373    -0.73210
O172        O  0.22323511  0.38682467  0.49619053    -0.73190
O173        O  0.22970169  0.47149225  0.41647925    -0.73160
O174        O  0.22272537  0.47009386  0.58548458    -0.73230
Ni175      Ni  0.13698643  0.47445156  0.49818314     1.25410
Ni176      Ni  0.22862174  0.47173883  0.50062553     1.25360
C177        C  0.17755990  0.46906799  0.61309316     0.89040
C178        C  0.18696968  0.47691181  0.38607932     0.88970
C179        C  0.17786807  0.35853817  0.49086876     0.89000
C180        C  0.18209709  0.58608818  0.50346740     0.89170
C181        C  0.34273389  0.13358770  0.48973559    -0.01200
C182        C  0.52973510  0.11852606  0.30584745    -0.01200
C183        C  0.51838161  0.11714090  0.67575225    -0.01200
C184        C  0.71027335  0.12164138  0.50737541    -0.01200
O185        O  0.52253121  0.07937660  0.57254592    -0.73140
O186        O  0.54044602  0.08016925  0.40751736    -0.73170
O187        O  0.61130518  0.07649713  0.49906999    -0.73230
O188        O  0.44378883  0.08605095  0.48492217    -0.73280
O189        O  0.44669957  0.17315736  0.49120496    -0.73210
O190        O  0.61375714  0.16497647  0.49880091    -0.73190
O191        O  0.53412496  0.16645335  0.40878585    -0.73160
O192        O  0.52823452  0.16642094  0.57861577    -0.73230
Ni193      Ni  0.52875096  0.07801427  0.49048820     1.25410
Ni194      Ni  0.53106648  0.17060606  0.49420187     1.25360
C195        C  0.52355450  0.12141610  0.60538517     0.89040
C196        C  0.53618136  0.12214996  0.37754740     0.88970
C197        C  0.64147615  0.12038298  0.50177763     0.89000
C198        C  0.41466570  0.13027724  0.48766401     0.89170
C199        C  0.00839002  0.78196255  0.34943222    -0.01200
C200        C  0.83687423  0.96586796  0.35507805    -0.01200
C201        C  0.20414791  0.97275707  0.34170104    -0.01200
C202        C  0.01930644  0.14422320  0.34110262    -0.01200
O203        O  0.93512751  0.96324818  0.30738046    -0.73140
O204        O  0.10266001  0.96212359  0.29895158    -0.73170
O205        O  0.01382942  0.87823773  0.30381763    -0.73230
O206        O  0.02102381  0.04429103  0.30002189    -0.73280
O207        O  0.02283201  0.04793505  0.38821698    -0.73210
O208        O  0.02445313  0.88204753  0.39064891    -0.73190
O209        O  0.10567192  0.96560261  0.38625606    -0.73160
O210        O  0.93962672  0.95942966  0.39379908    -0.73230
Ni211      Ni  0.01826709  0.96142752  0.29970734     1.25410
Ni212      Ni  0.02325844  0.96421223  0.39233646     1.25360
C213        C  0.90747152  0.96242214  0.35202785     0.89040
C214        C  0.13383570  0.96681947  0.34227520     0.88970
C215        C  0.01670649  0.85090573  0.34820770     0.89000
C216        C  0.02219467  0.07528569  0.34369746     0.89170
C217        C  0.74754016  0.08960092  0.45830244    -0.04050
C218        C  0.73885911  0.08853634  0.40241650    -0.01170
C219        C  0.77307370  0.05709394  0.36393369     0.03820
C220        C  0.81659772  0.02359343  0.38178505    -0.04050
C221        C  0.83368469  0.04026937  0.43316515    -0.01160
C222        C  0.80178144  0.07407224  0.46712190     0.03820
C223        C  0.68751622  0.10958432  0.39246361     0.38470
C224        C  0.88967450  0.03840500  0.44528595     0.38460
C225        C  0.82760260  0.10507662  0.50730251     0.36880
C226        C  0.77843657  0.07105476  0.30979195     0.36880
N227        N  0.83471912  0.13326800  0.54331401    -0.37940
N228        N  0.79377151  0.08062753  0.26758741    -0.37940
N229        N  0.93347962  0.03661031  0.46017044    -0.37380
N230        N  0.64545570  0.12841113  0.39191336    -0.37390
C231        C  0.22848753  0.03499512  0.36480943    -0.04050
C232        C  0.27251932  0.07096848  0.34508970    -0.01170
C233        C  0.30929336  0.10345184  0.38229656     0.03820
C234        C  0.30115786  0.10915172  0.43839006    -0.04050
C235        C  0.24536901  0.09731166  0.44646404    -0.01160
C236        C  0.21406004  0.05603526  0.41677827     0.03820
C237        C  0.27408520  0.08759983  0.29042721     0.38470
C238        C  0.22148823  0.12453702  0.49011546     0.38460
C239        C  0.16582404  0.03707157  0.44176866     0.36880
C240        C  0.36069888  0.12332923  0.36683389     0.36880
N241        N  0.12897444  0.02318974  0.46625679    -0.37940
N242        N  0.40412466  0.13995969  0.36464128    -0.37940
N243        N  0.20666214  0.14372278  0.52957553    -0.37380
N244        N  0.27463009  0.10616559  0.24823519    -0.37390
C245        C  0.05528964  0.74443914  0.38384534    -0.04050
C246        C  0.10155721  0.76524329  0.41424282    -0.01170
C247        C  0.14708730  0.73155031  0.42678407     0.03820
C248        C  0.13950522  0.67985458  0.45096292    -0.04050
C249        C  0.09058420  0.65562970  0.42891189    -0.01160
C250        C  0.05092016  0.68557124  0.39723768     0.03820
C251        C  0.09848279  0.81557719  0.44455481     0.38470
C252        C  0.07534428  0.60112388  0.44195140     0.38460
C253        C  0.00001836  0.65444957  0.39319299     0.36880
C254        C  0.17350602  0.72265366  0.37624137     0.36880
N255        N  0.96592437  0.62204337  0.39484174    -0.37940
N256        N  0.18846007  0.71346426  0.33305023    -0.37940
N257        N  0.05795750  0.55835683  0.44929444    -0.37380
N258        N  0.09909187  0.85778065  0.46612054    -0.37390
C259        C  0.23349973  0.26533829  0.49423115    -0.04050
C260        C  0.27050466  0.26908058  0.45211714    -0.01170
C261        C  0.31403880  0.23144323  0.44812515     0.03820
C262        C  0.32719351  0.19706999  0.49236519    -0.04050
C263        C  0.30948617  0.22057156  0.54020364    -0.01160
C264        C  0.25838311  0.24413518  0.54204053     0.03820
C265        C  0.25815526  0.30562056  0.40944837     0.38470
C266        C  0.34971805  0.24577549  0.57525972     0.38460
C267        C  0.23401745  0.23694379  0.59311165     0.36880
C268        C  0.34642659  0.23634483  0.40126721     0.36880
N269        N  0.21557754  0.22698582  0.63431270    -0.37940
N270        N  0.36551028  0.24612767  0.36036909    -0.37940
N271        N  0.37967028  0.26917448  0.60361777    -0.37380
N272        N  0.24156976  0.33057876  0.37460785    -0.37390
C273        C  0.06638729  0.18416795  0.37049929    -0.04050
C274        C  0.12236641  0.17784825  0.36661152    -0.01170
C275        C  0.16113806  0.21546807  0.39319245     0.03820
C276        C  0.14465776  0.26157095  0.42972222    -0.04050
C277        C  0.08954375  0.27271264  0.42060769    -0.01160
C278        C  0.05569323  0.23894459  0.38668072     0.03820
C279        C  0.13858304  0.12814209  0.34045964     0.38470
C280        C  0.06279529  0.31533971  0.44995575     0.38460
C281        C  0.01722370  0.26514829  0.35510374     0.36880
C282        C  0.21308544  0.20896486  0.36966209     0.36880
N283        N  0.98691879  0.27851668  0.32325407    -0.37940
N284        N  0.25078854  0.20197353  0.34365174    -0.37940
N285        N  0.03658734  0.34515765  0.47484783    -0.37380
N286        N  0.14635680  0.08797830  0.31723935    -0.37390
C287        C  0.31540687  0.09799944  0.54200125    -0.04050
C288        C  0.29936139  0.04461478  0.52756058    -0.01170
C289        C  0.24923512  0.01790473  0.54217473     0.03820
C290        C  0.22419263  0.02881354  0.59355683    -0.04050
C291        C  0.24206514  0.07946169  0.61411167    -0.01160
C292        C  0.28642534  0.11203673  0.59193946     0.03820
C293        C  0.34230349  0.01800182  0.50422806     0.38470
C294        C  0.20272129  0.10402321  0.64667511     0.38460
C295        C  0.30298798  0.15197895  0.63079608     0.36880
C296        C  0.22780500  0.97352842  0.50942775     0.36880
N297        N  0.30144221  0.18081888  0.66814263    -0.37940
N298        N  0.20531805  0.93762137  0.48780558    -0.37940
N299        N  0.16480272  0.12122305  0.66586181    -0.37380
N300        N  0.38359506  0.00649757  0.48812102    -0.37390
C301        C  0.08227038  0.19138350  0.62103258    -0.04050
C302        C  0.09910050  0.16902542  0.57267258    -0.01170
C303        C  0.11881998  0.20005516  0.52903918     0.03820
C304        C  0.13730677  0.25629293  0.53270572    -0.04050
C305        C  0.13034502  0.27757609  0.58544192    -0.01160
C306        C  0.10303375  0.24725190  0.62759428     0.03820
C307        C  0.10552504  0.11149412  0.56962286     0.38470
C308        C  0.16634535  0.32288181  0.59918349     0.38460
C309        C  0.11202584  0.26959851  0.68020898     0.36880
C310        C  0.11390628  0.16741104  0.48168553     0.36880
N311        N  0.12236116  0.28857500  0.72211104    -0.37940
N312        N  0.10875276  0.12898123  0.45468301    -0.37940
N313        N  0.19854019  0.35660992  0.60676013    -0.37380
N314        N  0.11562514  0.06654076  0.56397671    -0.37390
C315        C  0.15030998  0.69027370  0.55412772    -0.04050
C316        C  0.17247498  0.72761566  0.59535731    -0.01170
C317        C  0.13765200  0.76511742  0.62890651     0.03820
C318        C  0.08082203  0.75595580  0.63522193    -0.04050
C319        C  0.07382812  0.69920726  0.61650327    -0.01160
C320        C  0.10770304  0.66779222  0.58024285     0.03820
C321        C  0.20917108  0.69714289  0.62832414     0.38470
C322        C  0.04199202  0.66308847  0.64352761     0.38460
C323        C  0.12462594  0.61560621  0.59734557     0.36880
C324        C  0.16119371  0.79423398  0.67441208     0.36880
N325        N  0.14715969  0.57897532  0.61279604    -0.37940
N326        N  0.18086114  0.81238336  0.71338336    -0.37940
N327        N  0.03029101  0.62129218  0.65733364    -0.37380
N328        N  0.23712458  0.67202931  0.65498458    -0.37390
C329        C  0.81653870  0.03238177  0.62985466    -0.04050
C330        C  0.79358065  0.08334709  0.64774701    -0.01170
C331        C  0.75526947  0.11378033  0.61406394     0.03820
C332        C  0.73303325  0.09226376  0.56269423    -0.04050
C333        C  0.75102347  0.03936373  0.55343040    -0.01160
C334        C  0.80150097  0.02206123  0.57527063     0.03820
C335        C  0.81425489  0.11050705  0.69575013     0.38470
C336        C  0.71252610  0.00325499  0.52758657     0.38460
C337        C  0.84004329  0.99313020  0.54447916     0.36880
C338        C  0.73583141  0.16377994  0.63660939     0.36880
N339        N  0.87828069  0.97309812  0.52837811    -0.37940
N340        N  0.72177799  0.20350972  0.65748125    -0.37940
N341        N  0.67469983  0.97842604  0.51437933    -0.37380
N342        N  0.82641885  0.13513315  0.73462182    -0.37390
C343        C  0.02148410  0.25810799  0.21393790    -0.04050
C344        C  0.98563498  0.21202459  0.20229293    -0.01170
C345        C  0.98301435  0.16758646  0.23962934     0.03820
C346        C  0.02408945  0.16211916  0.27861655    -0.04050
C347        C  0.07114501  0.18770985  0.26007816    -0.01160
C348        C  0.06773486  0.24048167  0.24388385     0.03820
C349        C  0.97892458  0.19353571  0.14692763     0.38470
C350        C  0.11182265  0.15826243  0.23144274     0.38460
C351        C  0.10433208  0.27160104  0.27707304     0.36880
C352        C  0.95395240  0.11840853  0.22411574     0.36880
N353        N  0.13032096  0.29100910  0.31154789    -0.37940
N354        N  0.92953087  0.08034742  0.20997716    -0.37940
N355        N  0.14745108  0.13960488  0.20837093    -0.37380
N356        N  0.97752282  0.17322332  0.10407978    -0.37390
C357        C  0.15190140  0.41836642  0.29123196    -0.04050
C358        C  0.10225751  0.40365743  0.31225865    -0.01170
C359        C  0.05877621  0.37765147  0.28168069     0.03820
C360        C  0.06268986  0.35709449  0.22538364    -0.04530
C361        C  0.11407226  0.37102866  0.20589528    -0.01160
C362        C  0.15897216  0.39000082  0.24062158     0.03820
C363        C  0.09578955  0.40799157  0.36898007     0.38470
C364        C  0.11269962  0.38491910  0.15119825     0.38460
C365        C  0.19666079  0.34832954  0.24803348     0.36880
C366        C  0.01199102  0.37910421  0.31439455     0.36880
N367        N  0.21908295  0.30954845  0.25887740    -0.37940
N368        N  0.98627019  0.38279538  0.35310408    -0.37940
N369        N  0.10387407  0.39799731  0.10792166    -0.37380
N370        N  0.07906491  0.41345935  0.41178578    -0.37390
C371        C  0.01217058  0.25303904  0.80315523    -0.04050
C372        C  0.06306763  0.23248895  0.79661439    -0.01170
C373        C  0.07372630  0.19429453  0.75337368     0.03820
C374        C  0.03069102  0.17815946  0.71561868    -0.04050
C375        C  0.98136781  0.17730959  0.74347309    -0.01160
C376        C  0.97339692  0.21168620  0.79097552     0.03820
C377        C  0.10120450  0.24894098  0.83773893     0.38470
C378        C  0.94532168  0.13411465  0.72734098     0.38460
C379        C  0.94948771  0.18725074  0.83701051     0.36880
C380        C  0.12854520  0.17768273  0.75183403     0.36880
N381        N  0.93529372  0.16667472  0.87574511    -0.37940
N382        N  0.17397362  0.17080152  0.75840770    -0.37940
N383        N  0.92321294  0.09632702  0.70904662    -0.37380
N384        N  0.12569457  0.26408714  0.87507483    -0.37390
C385        C  0.05055280  0.35399958  0.78262909    -0.04050
C386        C  0.04643326  0.37345080  0.72556078    -0.01170
C387        C  0.09065676  0.39172948  0.69203691     0.03820
C388        C  0.13230938  0.42371896  0.71478438    -0.04050
C389        C  0.12798336  0.41945222  0.77271285    -0.01160
C390        C  0.09850605  0.37801748  0.80241494     0.03820
C391        C  0.00095159  0.39685819  0.70161177     0.38470
C392        C  0.12422902  0.46747552  0.80244865     0.38460
C393        C  0.10694451  0.37541932  0.85912011     0.36880
C394        C  0.08424691  0.38816061  0.63426745     0.36880
N395        N  0.11496446  0.37520166  0.90476410    -0.37940
N396        N  0.07809125  0.38399645  0.58804282    -0.37940
N397        N  0.11413610  0.50114700  0.83277440    -0.37380
N398        N  0.97705498  0.42515767  0.67466527    -0.37390
C399        C  0.72687979  0.39444485  0.12859699    -0.04050
C400        C  0.76906254  0.35770922  0.14533558    -0.01170
C401        C  0.80301418  0.32961306  0.10577735     0.03820
C402        C  0.79132425  0.32847694  0.05005277    -0.04050
C403        C  0.73537120  0.34318710  0.04265359    -0.01160
C404        C  0.70623374  0.37773275  0.07830587     0.03820
C405        C  0.75945090  0.32522289  0.19130294     0.38470
C406        C  0.70508914  0.33540571  0.99488401     0.38460
C407        C  0.65069598  0.38849554  0.06331305     0.36880
C408        C  0.85327385  0.30728367  0.12167007     0.36880
N409        N  0.60892228  0.39117510  0.04261236    -0.37940
N410        N  0.89665028  0.29367892  0.12963334    -0.37940
N411        N  0.67175026  0.33959713  0.96248994    -0.37380
N412        N  0.74998918  0.29353457  0.22346213    -0.37390
C413        C  0.52568307  0.26901126  0.21466043    -0.04050
C414        C  0.48403895  0.25700383  0.25235433    -0.01170
C415        C  0.49394069  0.21732726  0.29278176     0.03820
C416        C  0.53572745  0.17994452  0.28436926    -0.04050
C417        C  0.58026895  0.20749612  0.25695818    -0.01160
C418        C  0.57470807  0.25988205  0.23926748     0.03820
C419        C  0.44781712  0.29840495  0.26931351     0.38470
C420        C  0.62139686  0.18781943  0.22276944     0.38460
C421        C  0.59833960  0.30276471  0.27332457     0.36880
C422        C  0.47976461  0.23152829  0.34786167     0.36880
N423        N  0.61755482  0.33713735  0.30032278    -0.37940
N424        N  0.47100004  0.24762437  0.39127483    -0.37940
N425        N  0.65713555  0.17745267  0.19507092    -0.37380
N426        N  0.41663868  0.32647931  0.28892467    -0.37390
C427        C  0.32736966  0.47426283  0.21301852    -0.04050
C428        C  0.33090790  0.43884744  0.25661217    -0.01170
C429        C  0.28794749  0.43836544  0.29638694     0.03820
C430        C  0.24650566  0.47797752  0.29420193    -0.04050
C431        C  0.26633513  0.52656397  0.27028256    -0.01160
C432        C  0.30976823  0.52465894  0.23456734     0.03820
C433        C  0.38503364  0.43362547  0.27720822     0.38470
C434        C  0.24651813  0.58067579  0.28161606     0.38460
C435        C  0.34806349  0.56486286  0.25384208     0.36880
C436        C  0.30285961  0.42070866  0.34930030     0.36880
N437        N  0.36768843  0.60298653  0.27415130    -0.37940
N438        N  0.31993470  0.40985297  0.39115325    -0.37940
N439        N  0.23545318  0.62574960  0.28620773    -0.37380
N440        N  0.42758682  0.43459974  0.29660734    -0.37390
C441        C  0.24775030  0.33567077  0.04687817    -0.04050
C442        C  0.24904062  0.33241766  0.10610338    -0.01170
C443        C  0.28781189  0.36441896  0.14165202     0.03820
C444        C  0.32489207  0.40590294  0.12235319    -0.04050
C445        C  0.33265186  0.39823352  0.06678368    -0.01160
C446        C  0.29916158  0.36226275  0.03318558     0.03820
C447        C  0.20612711  0.30283800  0.13144377     0.38470
C448        C  0.37555351  0.42869639  0.04083631     0.38460
C449        C  0.32964254  0.34757166  0.98750542     0.36880
C450        C  0.30048507  0.34315493  0.19302987     0.36880
N451        N  0.36334543  0.34937159  0.95630982    -0.37940
N452        N  0.31592492  0.32398255  0.23217261    -0.37940
N453        N  0.40777551  0.44950324  0.01461392    -0.37380
N454        N  0.17154512  0.27825238  0.15053890    -0.37390
C455        C  0.72370929  0.95058795  0.21034356    -0.04050
C456        C  0.71839491  0.94297610  0.26602229    -0.01170
C457        C  0.76017123  0.92533700  0.29588373     0.03820
C458        C  0.80811490  0.95491691  0.29578826    -0.04050
C459        C  0.82145742  0.96528043  0.23978330    -0.01160
C460        C  0.78020492  0.95830754  0.19672858     0.03820
C461        C  0.67842208  0.96796497  0.29642493     0.38470
C462        C  0.87616055  0.97001109  0.22188217     0.38460
C463        C  0.79974423  0.95496404  0.14213128     0.36880
C464        C  0.76601554  0.86823077  0.29222705     0.36880
N465        N  0.82020800  0.95124245  0.10039606    -0.37940
N466        N  0.77164889  0.82203076  0.29102587    -0.37940
N467        N  0.91835786  0.96980705  0.20255934    -0.37380
N468        N  0.64897861  0.99490177  0.31935448    -0.37390
C469        C  0.57252742  0.08020354  0.26642485    -0.04050
C470        C  0.63195819  0.08291980  0.26248001    -0.01170
C471        C  0.66228582  0.04992076  0.22376488     0.03820
C472        C  0.63895605  0.00547076  0.19469098    -0.04050
C473        C  0.58662155  0.01623181  0.18210711    -0.01160
C474        C  0.55383099  0.04695741  0.21877978     0.03820
C475        C  0.66651202  0.12345350  0.28827792     0.38470
C476        C  0.56794223  0.00157658  0.12660436     0.38460
C477        C  0.50296157  0.04513687  0.19416212     0.36880
C478        C  0.71012177  0.07160046  0.19931993     0.36880
N479        N  0.47130779  0.03645927  0.16065814    -0.37940
N480        N  0.74469297  0.09150889  0.17569175    -0.37940
N481        N  0.54879402  0.99279433  0.08432611    -0.37380
N482        N  0.69696619  0.15843907  0.29946880    -0.37390
C483        C  0.72756737  0.15597341  0.99251462    -0.04050
C484        C  0.77499443  0.15206554  0.02575296    -0.01170
C485        C  0.81410934  0.19775117  0.03014723     0.03820
C486        C  0.81179324  0.24264097  0.99297405    -0.04050
C487        C  0.78053277  0.22445715  0.94864411    -0.01160
C488        C  0.73131507  0.20188607  0.96213235     0.03820
C489        C  0.78382329  0.10439148  0.05632871     0.38470
C490        C  0.80758792  0.18828811  0.91115389     0.38460
C491        C  0.68890768  0.23465827  0.97376963     0.36880
C492        C  0.85052424  0.19568979  0.07468985     0.36880
N493        N  0.64691600  0.24916666  0.98603888    -0.37940
N494        N  0.87143199  0.18658026  0.11502304    -0.37940
N495        N  0.82685887  0.15839628  0.88051592    -0.37380
N496        N  0.79407999  0.06583303  0.07918870    -0.37390
C497        C  0.64450411  0.16758810  0.05715574    -0.04050
C498        C  0.60165175  0.14897691  0.08676219    -0.01170
C499        C  0.56882931  0.18303432  0.12094545     0.03820
C500        C  0.57453439  0.24129406  0.12551821    -0.04050
C501        C  0.62654140  0.25697240  0.11109983    -0.01160
C502        C  0.66363950  0.21857402  0.08447266     0.03820
C503        C  0.62060282  0.09975759  0.10346907     0.38470
C504        C  0.64309013  0.30217640  0.14473354     0.38460
C505        C  0.71678489  0.21962580  0.10670291     0.36880
C506        C  0.52947678  0.15969209  0.15434937     0.36880
N507        N  0.75615959  0.21816973  0.13149499    -0.37940
N508        N  0.49241629  0.14972036  0.17952867    -0.37940
N509        N  0.64730014  0.33760805  0.17614070    -0.37380
N510        N  0.65142774  0.06618049  0.10823135    -0.37390
C511        C  0.72579306  0.96040994  0.79842136    -0.04050
C512        C  0.73343425  0.92975938  0.75246284    -0.01170
C513        C  0.78343148  0.92059001  0.73202662     0.03820
C514        C  0.81596879  0.96736649  0.72258641    -0.04050
C515        C  0.81563053  0.00118307  0.77125529    -0.01160
C516        C  0.77199331  0.99549167  0.81084586     0.03820
C517        C  0.68932202  0.92336242  0.71749169     0.38470
C518        C  0.86394249  0.02982304  0.78859476     0.38460
C519        C  0.77298853  0.02954581  0.85929746     0.36880
C520        C  0.78969543  0.86630344  0.71067412     0.36880
N521        N  0.77424707  0.05613753  0.89857801    -0.37940
N522        N  0.78754638  0.82247678  0.69313776    -0.37940
N523        N  0.90224093  0.05048674  0.80711842    -0.37380
N524        N  0.65012614  0.92271856  0.69304247    -0.37390
C525        C  0.63051802  0.00718624  0.78643616    -0.04050
C526        C  0.58502996  0.03563997  0.80340597    -0.01170
C527        C  0.55103210  0.06890040  0.76930053     0.03820
C528        C  0.55837025  0.07685210  0.71250914    -0.04050
C529        C  0.61004224  0.06098024  0.69910432    -0.01160
C530        C  0.64666228  0.03405480  0.73786625     0.03820
C531        C  0.58914373  0.04688255  0.85859608     0.38470
C532        C  0.62733261  0.09064561  0.65345193     0.38460
C533        C  0.69684544  0.06016917  0.74616438     0.36880
C534        C  0.51428617  0.10451556  0.79407918     0.36880
N535        N  0.73454377  0.08460672  0.75906747    -0.37940
N536        N  0.48337239  0.13633891  0.80633146    -0.37940
N537        N  0.63574096  0.11663356  0.61661603    -0.37380
N538        N  0.60328020  0.05167795  0.90230912    -0.37390
C539        C  0.64179156  0.73088100  0.02784516    -0.04050
C540        C  0.64466712  0.74728090  0.08356500    -0.01170
C541        C  0.62960521  0.71245214  0.12780226     0.03820
C542        C  0.59797316  0.66364266  0.11970842    -0.04050
C543        C  0.60497901  0.64308295  0.06788649    -0.01160
C544        C  0.62167242  0.67522322  0.02364981     0.03820
C545        C  0.66949750  0.79849830  0.09452368     0.38470
C546        C  0.60776657  0.58500681  0.06111271     0.38460
C547        C  0.61755783  0.64219493  0.97680398     0.36880
C548        C  0.66265640  0.71626955  0.17566376     0.36880
N549        N  0.61267588  0.60112411  0.95348508    -0.37940
N550        N  0.69107153  0.71682083  0.21293871    -0.37940
N551        N  0.61184897  0.54044693  0.04686530    -0.37380
N552        N  0.69278053  0.83912431  0.09735311    -0.37390
C553        C  0.01371529  0.76521019  0.28445960    -0.04050
C554        C  0.06443678  0.76585603  0.25685579    -0.01170
C555        C  0.07707729  0.72167327  0.21923608     0.03820
C556        C  0.03445118  0.68686824  0.19682223    -0.04050
C557        C  0.98606147  0.71563384  0.19971723    -0.01160
C558        C  0.97339145  0.73930135  0.25085268     0.03820
C559        C  0.08623225  0.81776794  0.24291716     0.38470
C560        C  0.97090370  0.74551252  0.15308572     0.38460
C561        C  0.94658131  0.70042994  0.27807578     0.36880
C562        C  0.13284007  0.71070009  0.21108766     0.36880
N563        N  0.93448802  0.66583222  0.30522394    -0.37940
N564        N  0.17830732  0.70307539  0.20753301    -0.37940
N565        N  0.95857227  0.76918839  0.11551991    -0.37380
N566        N  0.10111233  0.85950623  0.22856058    -0.37390
C567        C  0.15395096  0.51794398  0.27834488    -0.04050
C568        C  0.15690907  0.52313730  0.21920296    -0.01170
C569        C  0.12755830  0.56319180  0.18853977     0.03820
C570        C  0.08974763  0.59559471  0.21245408    -0.04050
C571        C  0.10114954  0.59908831  0.26909613    -0.01160
C572        C  0.12999193  0.56264483  0.30093208     0.03820
C573        C  0.19104806  0.48766630  0.19232907     0.38470
C574        C  0.07276884  0.63515266  0.29493794     0.38460
C575        C  0.15021108  0.57974906  0.35208316     0.36880
C576        C  0.14893595  0.59405910  0.14667798     0.36880
N577        N  0.17431950  0.59118833  0.39049539    -0.37940
N578        N  0.15656555  0.62719040  0.11583553    -0.37940
N579        N  0.03866135  0.66302553  0.30032203    -0.37380
N580        N  0.22208329  0.45471481  0.18479035    -0.37390
C581        C  0.23583027  0.58737946  0.04998927    -0.04050
C582        C  0.26883473  0.60269422  0.09849173    -0.01170
C583        C  0.30956144  0.56624091  0.12134121     0.03820
C584        C  0.30838022  0.50904263  0.11421743    -0.04050
C585        C  0.25959484  0.49624770  0.08199221    -0.01160
C586        C  0.22336287  0.53339258  0.05624643     0.03820
C587        C  0.26902711  0.65559861  0.12453809     0.38470
C588        C  0.23271654  0.44759849  0.08326319     0.38460
C589        C  0.16585183  0.52213075  0.06053352     0.36880
C590        C  0.35703474  0.58961926  0.14661869     0.36880
N591        N  0.12185370  0.50958026  0.07003385    -0.37940
N592        N  0.39554375  0.60864561  0.16610977    -0.37940
N593        N  0.19771386  0.41792328  0.08769708    -0.37380
N594        N  0.27381572  0.69596113  0.14909856    -0.37390
C595        C  0.81919376  0.66503385  0.99658708    -0.04050
C596        C  0.76582513  0.66507370  0.01352499    -0.01170
C597        C  0.74479199  0.71404368  0.03015100     0.03820
C598        C  0.73416072  0.74456700  0.98584536    -0.04050
C599        C  0.78427843  0.75285605  0.95750267    -0.01160
C600        C  0.83013680  0.71680010  0.96961751     0.03820
C601        C  0.73070421  0.62041973  0.99766399     0.38470
C602        C  0.79187914  0.79989333  0.92534854     0.38460
C603        C  0.88344006  0.73595682  0.95686975     0.36880
C604        C  0.77454470  0.74585949  0.07151755     0.36880
N605        N  0.92530120  0.75368450  0.94633291    -0.37940
N606        N  0.79994650  0.77245039  0.10188558    -0.37940
N607        N  0.79968787  0.83863563  0.90139527    -0.37380
N608        N  0.70984757  0.57916445  0.98757085    -0.37390
C609        C  0.82377807  0.57487202  0.05325270    -0.04050
C610        C  0.77881157  0.58923399  0.08880108    -0.01170
C611        C  0.73874309  0.55028347  0.10813921     0.03820
C612        C  0.74914811  0.49458838  0.11384661    -0.04050
C613        C  0.80747415  0.48664087  0.10039822    -0.01160
C614        C  0.84224280  0.52553458  0.07184870     0.03820
C615        C  0.78280073  0.63805130  0.12264675     0.38470
C616        C  0.83784166  0.44043336  0.11265119     0.38460
C617        C  0.89717648  0.51185841  0.06108012     0.36880
C618        C  0.69532747  0.56965553  0.14002090     0.36880
N619        N  0.94082779  0.49692774  0.05825154    -0.37940
N620        N  0.66028608  0.58210814  0.16727213    -0.37940
N621        N  0.87366188  0.41234201  0.11867523    -0.37380
N622        N  0.78412722  0.67267470  0.15525082    -0.37390
C623        C  0.04395890  0.68548117  0.80620473    -0.04050
C624        C  0.04119564  0.68935618  0.75282261    -0.01170
C625        C  0.00374288  0.72946964  0.73948918     0.03820
C626        C  0.03011270  0.77666584  0.73217427    -0.04050
C627        C  0.05712550  0.78846615  0.78576301    -0.01160
C628        C  0.05951654  0.74232964  0.82636048     0.03820
C629        C  0.09720017  0.68982407  0.73387768     0.38470
C630        C  0.05765383  0.84354179  0.80621456     0.38460
C631        C  0.07161306  0.75516894  0.88229053     0.36880
C632        C  0.95805679  0.73826200  0.77746239     0.36880
N633        N  0.08102906  0.76675020  0.92706768    -0.37940
N634        N  0.92506734  0.74400823  0.80976514    -0.37940
N635        N  0.05371768  0.88701864  0.82437020    -0.37380
N636        N  0.14226364  0.68975222  0.72319445    -0.37390
C637        C  0.14776953  0.52647200  0.70977168    -0.04050
C638        C  0.16755756  0.56544503  0.75248375    -0.01170
C639        C  0.13123317  0.59566042  0.78917131     0.03820
C640        C  0.07459527  0.58849648  0.78683028    -0.04050
C641        C  0.05984782  0.55259128  0.74354397    -0.01160
C642        C  0.09252091  0.53347835  0.70133232     0.03820
C643        C  0.22148351  0.58554449  0.75259064     0.38470
C644        C  0.02887838  0.51074278  0.76130328     0.38460
C645        C  0.06546224  0.51064461  0.65388256     0.36880
C646        C  0.14953651  0.63082745  0.83306669     0.36880
N647        N  0.04343859  0.49484191  0.61504883    -0.37940
N648        N  0.15699993  0.65978996  0.87000528    -0.37940
N649        N  0.01652393  0.47244757  0.78143777    -0.37380
N650        N  0.26384962  0.60519544  0.75117028    -0.37390
C651        C  0.30336191  0.95033631  0.19557854    -0.04050
C652        C  0.27374197  0.90296841  0.20981594    -0.01170
C653        C  0.23563054  0.90618325  0.25341038     0.03820
C654        C  0.22226143  0.95816105  0.27883707    -0.04050
C655        C  0.22512647  0.99686701  0.23821396    -0.01160
C656        C  0.26783266  0.99524157  0.19825103     0.03820
C657        C  0.28695451  0.84983941  0.18798957     0.38470
C658        C  0.17378234  0.01834187  0.22325343     0.38460
C659        C  0.25743828  0.02215564  0.14840341     0.36880
C660        C  0.21361482  0.85456767  0.26676832     0.36880
N661        N  0.24620401  0.04292426  0.10873958    -0.37940
N662        N  0.20099057  0.80948961  0.26972215    -0.37940
N663        N  0.13131385  0.03047452  0.20932157    -0.37380
N664        N  0.29494678  0.80521860  0.17573456    -0.37390
C665        C  0.46835137  0.09044225  0.28928271    -0.04050
C666        C  0.45760626  0.03907846  0.30701570    -0.01170
C667        C  0.43312795  0.99632251  0.27396047     0.03820
C668        C  0.39731446  0.00231353  0.22691471    -0.04050
C669        C  0.39061626  0.05984668  0.22157162    -0.01160
C670        C  0.42380631  0.10245748  0.25154635     0.03820
C671        C  0.46224312  0.03104561  0.36427170     0.38470
C672        C  0.36700291  0.07302829  0.17100848     0.38460
C673        C  0.40190335  0.15573831  0.25157213     0.36880
C674        C  0.44748182  0.94891592  0.29892339     0.36880
N675        N  0.38023858  0.19666481  0.25451912    -0.37940
N676        N  0.45750539  0.92096583  0.33374396    -0.37940
N677        N  0.35332634  0.07799661  0.12685709    -0.37380
N678        N  0.46420085  0.01681077  0.40817782    -0.37390
C679        C  0.30183187  0.16365230  0.01655494    -0.04050
C680        C  0.28926074  0.20973770  0.04968467    -0.01170
C681        C  0.23638794  0.22571031  0.05227335     0.03820
C682        C  0.21849850  0.24279953  0.00226084    -0.04050
C683        C  0.21949806  0.19524339  0.96591968    -0.01160
C684        C  0.25827672  0.15206667  0.97807593     0.03820
C685        C  0.32752833  0.25289092  0.05781988     0.38470
C686        C  0.17229552  0.17949693  0.93482424     0.38460
C687        C  0.23666781  0.09763576  0.97803121     0.36880
C688        C  0.20030061  0.18869368  0.07918743     0.36880
N689        N  0.21645945  0.05556819  0.98320079    -0.37940
N690        N  0.17123388  0.15826151  0.09884349    -0.37940
N691        N  0.13491737  0.16135139  0.91218847    -0.37380
N692        N  0.36254907  0.28378781  0.06407289    -0.37390
C693        C  0.40009009  0.16735106  0.06444141    -0.04050
C694        C  0.38974071  0.19338584  0.11833227    -0.01170
C695        C  0.42598011  0.23648410  0.14076711     0.03820
C696        C  0.47483071  0.25078506  0.11731924    -0.04050
C697        C  0.48138834  0.22451167  0.06598822    -0.01160
C698        C  0.45289402  0.17613012  0.05057139     0.03820
C699        C  0.33922526  0.18665493  0.14631061     0.38470
C700        C  0.52068115  0.24598650  0.03095472     0.38460
C701        C  0.47579181  0.12604583  0.05948115     0.36880
C702        C  0.40728985  0.28629662  0.16327711     0.36880
N703        N  0.48751414  0.08405115  0.07349493    -0.37940
N704        N  0.40483754  0.33238383  0.17221743    -0.37940
N705        N  0.55143825  0.26986380  0.00629464    -0.37380
N706        N  0.29838973  0.18324032  0.16804224    -0.37390
C707        C  0.32809888  0.75354040  0.00018682    -0.04050
C708        C  0.28338388  0.76289202  0.03782007    -0.01170
C709        C  0.23812715  0.72292550  0.03966728     0.03820
C710        C  0.23363277  0.68100448  0.99813225    -0.04050
C711        C  0.25717435  0.70157063  0.95322547    -0.01160
C712        C  0.31170871  0.71294557  0.96119786     0.03820
C713        C  0.27181863  0.81649859  0.05825791     0.38470
C714        C  0.22702412  0.74305257  0.92652202     0.38460
C715        C  0.34632884  0.66887806  0.95054467     0.36880
C716        C  0.19081995  0.73483473  0.07095420     0.36880
N717        N  0.37641908  0.63382254  0.94796666    -0.37940
N718        N  0.15254100  0.74617446  0.09455875    -0.37940
N719        N  0.20351669  0.77645792  0.90535322    -0.37380
N720        N  0.25852533  0.85924705  0.07241973    -0.37390
C721        C  0.42136901  0.75249093  0.05502697    -0.04050
C722        C  0.46813992  0.77392402  0.08285293    -0.01170
C723        C  0.50224156  0.74066687  0.11686404     0.03820
C724        C  0.49991269  0.68165166  0.11904316    -0.04050
C725        C  0.45796701  0.66139088  0.08614490    -0.01160
C726        C  0.41648525  0.69588089  0.06643251     0.03820
C727        C  0.48865470  0.82726309  0.06908502     0.38470
C728        C  0.45309694  0.60412785  0.07197074     0.38460
C729        C  0.37004686  0.66653627  0.05627940     0.36880
C730        C  0.53855212  0.77036931  0.15063707     0.36880
N731        N  0.34484658  0.62949036  0.04272741    -0.37940
N732        N  0.56746870  0.79661932  0.17674189    -0.37940
N733        N  0.44130319  0.56029595  0.05797909    -0.37380
N734        N  0.50958734  0.86665396  0.05540134    -0.37390
C735        C  0.29981161  0.96475020  0.77923698    -0.04050
C736        C  0.26264749  0.00885471  0.78313714    -0.01170
C737        C  0.22633066  0.02058722  0.73749728     0.03820
C738        C  0.22195122  0.98028099  0.69452490    -0.04050
C739        C  0.22718196  0.93022035  0.71834169    -0.01160
C740        C  0.27841386  0.92572860  0.73939271     0.03820
C741        C  0.24407083  0.02307008  0.83610023     0.38470
C742        C  0.18639322  0.91603192  0.75674788     0.38460
C743        C  0.30653433  0.89210637  0.70397254     0.36880
C744        C  0.17675513  0.04696496  0.75108139     0.36880
N745        N  0.32639652  0.86102468  0.67579894    -0.37940
N746        N  0.13546375  0.06258331  0.76507051    -0.37940
N747        N  0.15653566  0.90647788  0.79057976    -0.37380
N748        N  0.22407933  0.03351695  0.87673916    -0.37390
C749        C  0.38699419  0.01744073  0.76056525    -0.04050
C750        C  0.38146900  0.07585752  0.75716327    -0.01170
C751        C  0.41670657  0.10961386  0.72304894     0.03820
C752        C  0.46020140  0.08890226  0.69136546    -0.04050
C753        C  0.45162021  0.03407237  0.68010858    -0.01160
C754        C  0.41338653  0.00215809  0.70919588     0.03820
C755        C  0.33173611  0.10023900  0.77279065     0.38470
C756        C  0.48155519  0.00896102  0.63619648     0.38460
C757        C  0.40313241  0.95242852  0.68051478     0.36880
C758        C  0.40218341  0.16340864  0.71211812     0.36880
N759        N  0.40761375  0.91376515  0.65412150    -0.37940
N760        N  0.39136599  0.20712644  0.70172115    -0.37940
N761        N  0.50565020  0.98547376  0.60351065    -0.37380
N762        N  0.29172656  0.12161259  0.78226958    -0.37390
C763        C  0.56991806  0.67047073  0.85564843    -0.04050
C764        C  0.62209577  0.65302970  0.86674696    -0.01170
C765        C  0.66422131  0.69012981  0.89171789     0.03820
C766        C  0.64790183  0.73979885  0.92090892    -0.04050
C767        C  0.59911568  0.75771666  0.89703819    -0.01160
C768        C  0.57477735  0.72754582  0.85294578     0.03820
C769        C  0.62904066  0.59866060  0.85020189     0.38470
C770        C  0.57246029  0.80547854  0.91467050     0.38460
C771        C  0.60326890  0.73724787  0.80393268     0.36880
C772        C  0.70452704  0.70060179  0.85290793     0.36880
N773        N  0.63313909  0.73256994  0.76869505    -0.37940
N774        N  0.73000922  0.70981793  0.81543871    -0.37940
N775        N  0.54702762  0.84031166  0.93236392    -0.37380
N776        N  0.62836260  0.55374808  0.83669447    -0.37390
C777        C  0.46884906  0.65937780  0.87536717    -0.04050
C778        C  0.41817712  0.68864137  0.86581578    -0.01170
C779        C  0.40515903  0.73832743  0.89803594     0.03820
C780        C  0.42577397  0.74820741  0.95091293    -0.04050
C781        C  0.47015311  0.71379112  0.96069410    -0.01160
C782        C  0.48394233  0.66728433  0.92942656     0.03820
C783        C  0.38334169  0.67385996  0.82055595     0.38470
C784        C  0.51394768  0.73702018  0.98841368     0.38460
C785        C  0.50043845  0.62069095  0.95737297     0.36880
C786        C  0.36290923  0.77410665  0.88563347     0.36880
N787        N  0.51131551  0.58148870  0.97880564    -0.37940
N788        N  0.32852086  0.80424304  0.89204747    -0.37940
N789        N  0.54783684  0.76119951  0.00985821    -0.37380
N790        N  0.35858048  0.66060834  0.78256756    -0.37390
C791        C  0.72363631  0.39383108  0.87602916    -0.04050
C792        C  0.74894230  0.34156590  0.86557508    -0.01170
C793        C  0.79309284  0.32175613  0.89837677     0.03820
C794        C  0.80852102  0.34388807  0.94976536    -0.04050
C795        C  0.78235001  0.39523816  0.95678622    -0.01160
C796        C  0.73485994  0.41170780  0.92767862     0.03820
C797        C  0.72265296  0.29853577  0.83454759     0.38470
C798        C  0.79272539  0.43429319  0.99582744     0.38460
C799        C  0.69400163  0.44693438  0.95274935     0.36880
C800        C  0.83410465  0.29128171  0.87178970     0.36880
N801        N  0.66343199  0.47442183  0.97443743    -0.37940
N802        N  0.86921270  0.26828356  0.85249509    -0.37940
N803        N  0.77902699  0.47750469  0.00537133    -0.37380
N804        N  0.70595096  0.26228394  0.80841895    -0.37390
C805        C  0.74847275  0.49770799  0.86707629    -0.04050
C806        C  0.74984103  0.55597489  0.86639995    -0.01170
C807        C  0.78650944  0.59105671  0.90092943     0.03820
C808        C  0.82330403  0.57110223  0.94157039    -0.04050
C809        C  0.83524123  0.51703810  0.92425927    -0.01160
C810        C  0.80271635  0.48605738  0.88382253     0.03820
C811        C  0.73024298  0.57884521  0.81829387     0.38470
C812        C  0.88004802  0.48903380  0.94677697     0.38460
C813        C  0.82478435  0.43875948  0.86012606     0.36880
C814        C  0.79992499  0.64347084  0.88154200     0.36880
N815        N  0.84050338  0.39897600  0.84194682    -0.37940
N816        N  0.81595713  0.68317715  0.86339477    -0.37940
N817        N  0.91407206  0.46063191  0.95911626    -0.37380
N818        N  0.71249332  0.59793825  0.78022679    -0.37390
C819        C  0.31940313  0.44873137  0.78546064    -0.04050
C820        C  0.29451044  0.40237674  0.76224776    -0.01170
C821        C  0.24590331  0.40706477  0.73280943     0.03820
C822        C  0.23108476  0.45705567  0.70942619    -0.04050
C823        C  0.27567146  0.49353706  0.70840872    -0.01160
C824        C  0.31822714  0.49182334  0.74836903     0.03820
C825        C  0.32850600  0.36099882  0.73890777     0.38470
C826        C  0.27823821  0.53146035  0.66605606     0.38460
C827        C  0.36500141  0.52644283  0.74280974     0.36880
C828        C  0.22363975  0.35522576  0.71715004     0.36880
N829        N  0.40259159  0.55324955  0.73507262    -0.37940
N830        N  0.22084510  0.30925512  0.70819044    -0.37940
N831        N  0.27766805  0.56347098  0.63341568    -0.37380
N832        N  0.34709346  0.32436276  0.71628307    -0.37390
C833        C  0.29674081  0.50830576  0.86600180    -0.04050
C834        C  0.23920161  0.50403570  0.87326363    -0.01170
C835        C  0.21006232  0.53685144  0.91422864     0.03820
C836        C  0.23202208  0.58591234  0.93869732    -0.04050
C837        C  0.27744416  0.59928541  0.90344241    -0.01160
C838        C  0.31435353  0.55873392  0.88223287     0.03820
C839        C  0.21702377  0.45515857  0.85205935     0.38470
C840        C  0.26982503  0.64068382  0.86419768     0.38460
C841        C  0.36687212  0.56822032  0.86357908     0.36880
C842        C  0.15654335  0.52108502  0.92721956     0.36880
N843        N  0.41023726  0.56831752  0.84829576    -0.37940
N844        N  0.11268182  0.50629277  0.93394246    -0.37940
N845        N  0.26378144  0.67628729  0.83556554    -0.37380
N846        N  0.20787347  0.41081834  0.83919078    -0.37390
C847        C  0.30845511  0.41059664  0.88824188    -0.04050
C848        C  0.27952200  0.42607867  0.93641774    -0.01170
C849        C  0.23232835  0.39613500  0.95282754     0.03820
C850        C  0.22434849  0.33975218  0.94400552    -0.04050
C851        C  0.25271322  0.32369399  0.89474163    -0.01160
C852        C  0.29613135  0.35648434  0.87150252     0.03820
C853        C  0.29866837  0.47298054  0.96793384     0.38470
C854        C  0.23428929  0.27926109  0.86000999     0.38460
C855        C  0.34178175  0.33231952  0.84679321     0.36880
C856        C  0.18917978  0.42180854  0.97757362     0.36880
N857        N  0.38383897  0.32189686  0.83078070    -0.37940
N858        N  0.14927458  0.43558079  0.99559178    -0.37940
N859        N  0.22469361  0.24346825  0.83012673    -0.37380
N860        N  0.31759939  0.51185204  0.98805649    -0.37390
C861        C  0.51291773  0.24593509  0.79643099    -0.04050
C862        C  0.56519991  0.23597247  0.77851236    -0.01170
C863        C  0.57127102  0.19163803  0.74231925     0.03820
C864        C  0.52893982  0.17694936  0.70418770    -0.04050
C865        C  0.49549640  0.22237980  0.69925188    -0.01160
C866        C  0.48255666  0.25484192  0.74783077     0.03820
C867        C  0.59596371  0.28382381  0.76302623     0.38470
C868        C  0.49141736  0.24626228  0.64691900     0.38460
C869        C  0.46094733  0.30740359  0.73879950     0.36880
C870        C  0.62534123  0.17546945  0.73853121     0.36880
N871        N  0.44989014  0.35104577  0.72791774    -0.37940
N872        N  0.67081483  0.16902168  0.74113897    -0.37940
N873        N  0.49113117  0.26776399  0.60609545    -0.37380
N874        N  0.61934908  0.32169375  0.74892246    -0.37390
C875        C  0.54442075  0.22061724  0.89451313    -0.04050
C876        C  0.59972972  0.21997484  0.88675341    -0.01170
C877        C  0.63369971  0.17505767  0.90262025     0.03820
C878        C  0.62440744  0.14760940  0.95339190    -0.04050
C879        C  0.56896333  0.14533384  0.96242923    -0.01160
C880        C  0.53077649  0.17302094  0.92766722     0.03820
C881        C  0.61897488  0.27353591  0.87773879     0.38470
C882        C  0.55265446  0.09423267  0.98516903     0.38460
C883        C  0.49262908  0.13228636  0.91097495     0.36880
C884        C  0.67848124  0.16092938  0.86978390     0.36880
N885        N  0.46980173  0.09136132  0.90368866    -0.37940
N886        N  0.71551175  0.14980149  0.84452680    -0.37940
N887        N  0.53600045  0.05056294  0.99026205    -0.37380
N888        N  0.62413003  0.31942798  0.87099316    -0.37390
C889        C  0.38959787  0.17381812  0.96148751    -0.04050
C890        C  0.38969384  0.15985558  0.90485391    -0.01170
C891        C  0.41320300  0.19795947  0.86585155     0.03820
C892        C  0.44752617  0.24400403  0.88458641    -0.04050
C893        C  0.43686651  0.25829034  0.93935218    -0.01160
C894        C  0.39609621  0.23043825  0.96696812     0.03820
C895        C  0.35816884  0.11356409  0.88967186     0.38470
C896        C  0.45739453  0.30751438  0.96528539     0.38460
C897        C  0.34540831  0.24472511  0.94722934     0.36880
C898        C  0.37669391  0.20922066  0.82307592     0.36880
N899        N  0.30668554  0.24144868  0.92275898    -0.37940
N900        N  0.34206195  0.22158869  0.79487045    -0.37940
N901        N  0.47080325  0.34618123  0.99000973    -0.37380
N902        N  0.33218501  0.07500116  0.88359423    -0.37390
C903        C  0.72786417  0.84002172  0.44716648    -0.04050
C904        C  0.71136629  0.88884681  0.43090820    -0.01170
C905        C  0.74711634  0.93012971  0.41301473     0.03820
C906        C  0.80241732  0.92199269  0.39426018    -0.04050
C907        C  0.81169419  0.86471421  0.39254348    -0.01160
C908        C  0.77583784  0.82443391  0.41894073     0.03820
C909        C  0.65532760  0.88958852  0.41650144     0.38470
C910        C  0.85851931  0.85117782  0.36205493     0.38460
C911        C  0.77506561  0.76866646  0.40268703     0.36880
C912        C  0.71588433  0.97684758  0.41089020     0.36880
N913        N  0.76464422  0.72520219  0.38692843    -0.37940
N914        N  0.67820195  0.00322091  0.41553284    -0.37940
N915        N  0.89417930  0.84842637  0.33253451    -0.37380
N916        N  0.61112649  0.89175316  0.40339672    -0.37390
C917        C  0.80269267  0.93093035  0.62672645    -0.04050
C918        C  0.82210139  0.88772393  0.59819255    -0.01170
C919        C  0.79286764  0.86639010  0.55163014     0.03820
C920        C  0.73409508  0.86060631  0.54694140    -0.04050
C921        C  0.71129663  0.89459722  0.58653747    -0.01160
C922        C  0.74489076  0.93213133  0.61925249     0.03820
C923        C  0.87633772  0.87552025  0.60965893     0.38470
C924        C  0.65402330  0.90217597  0.58668290     0.38460
C925        C  0.71950419  0.97869831  0.63643943     0.36880
C926        C  0.82598416  0.87434472  0.50731832     0.36880
N927        N  0.69590408  0.01659610  0.64435057    -0.37940
N928        N  0.86248265  0.88232493  0.48055246    -0.37940
N929        N  0.60971092  0.91512094  0.58966488    -0.37380
N930        N  0.92039136  0.86691479  0.61980560    -0.37390
C931        C  0.51086120  0.74020463  0.69118496    -0.04050
C932        C  0.46551026  0.70926748  0.70393232    -0.01170
C933        C  0.47014660  0.69026698  0.75579976     0.03820
C934        C  0.50979758  0.65322136  0.77027029    -0.04050
C935        C  0.55236268  0.65732130  0.73058892    -0.01160
C936        C  0.55488276  0.70300118  0.69309568     0.03820
C937        C  0.44673347  0.66783766  0.66502689     0.38470
C938        C  0.59249436  0.61769709  0.72573460     0.38460
C939        C  0.59091216  0.69979552  0.64789161     0.36880
C940        C  0.47425842  0.73364635  0.79088904     0.36880
N941        N  0.61841024  0.69434541  0.61079990    -0.37940
N942        N  0.48150424  0.75823906  0.82911711    -0.37940
N943        N  0.62661070  0.58882664  0.71504581    -0.37380
N944        N  0.43189081  0.63383100  0.63498114    -0.37390
C945        C  0.55737711  0.82826552  0.74194571    -0.04050
C946        C  0.54469234  0.85462219  0.79726280    -0.01170
C947        C  0.57777823  0.89732610  0.82181983     0.03820
C948        C  0.63190874  0.90259393  0.80937050    -0.04050
C949        C  0.64812926  0.85350643  0.78108658    -0.01160
C950        C  0.61363962  0.83045645  0.73724636     0.03820
C951        C  0.49595159  0.85265397  0.82952354     0.38470
C952        C  0.69961279  0.83131683  0.79338565     0.38460
C953        C  0.63466845  0.81309077  0.68622911     0.36880
C954        C  0.55572104  0.93033718  0.86601695     0.36880
N955        N  0.64619865  0.80406490  0.64198417    -0.37940
N956        N  0.53416700  0.95009640  0.90290650    -0.37940
N957        N  0.74178946  0.81632290  0.80456769    -0.37380
N958        N  0.46121086  0.85538322  0.86059082    -0.37390
C959        C  0.46320803  0.84249822  0.71501197    -0.04050
C960        C  0.41264174  0.82521480  0.73954018    -0.01170
C961        C  0.38136928  0.86031802  0.77610907     0.03820
C962        C  0.39634463  0.91591439  0.78702203    -0.04050
C963        C  0.44970196  0.92675338  0.77408089    -0.01160
C964        C  0.47664265  0.89810437  0.73138616     0.03820
C965        C  0.38353718  0.77730046  0.72073970     0.38470
C966        C  0.47337432  0.97159703  0.80377245     0.38460
C967        C  0.52091950  0.92661148  0.70850640     0.36880
C968        C  0.32918138  0.84063147  0.79370927     0.36880
N969        N  0.55562358  0.95298456  0.69334988    -0.37940
N970        N  0.28551823  0.82505307  0.80025678    -0.37940
N971        N  0.48016291  0.00830392  0.83279003    -0.37380
N972        N  0.35558966  0.74098759  0.70839964    -0.37390
C973        C  0.52335129  0.74277533  0.29585560    -0.04050
C974        C  0.48144218  0.70515286  0.28037839    -0.01170
C975        C  0.49191190  0.66258494  0.24188026     0.03820
C976        C  0.54050551  0.66507640  0.21301937    -0.04050
C977        C  0.58298973  0.67839751  0.24956892    -0.01160
C978        C  0.57332796  0.71716714  0.29258288     0.03820
C979        C  0.42855042  0.70717398  0.30306166     0.38470
C980        C  0.62292378  0.63823190  0.25954197     0.38460
C981        C  0.60006355  0.70955238  0.34312805     0.36880
C982        C  0.47670929  0.60939213  0.25912487     0.36880
N983        N  0.62360511  0.70147462  0.38210596    -0.37940
N984        N  0.46830323  0.56676225  0.27563906    -0.37940
N985        N  0.65565785  0.60898583  0.27329540    -0.37380
N986        N  0.38395137  0.70727216  0.31547204    -0.37390
C987        C  0.56465117  0.84200818  0.28829924    -0.04050
C988        C  0.55473818  0.89433904  0.27125022    -0.01170
C989        C  0.57446851  0.91199358  0.22131723     0.03820
C990        C  0.62796196  0.90211093  0.20293391    -0.04050
C991        C  0.64773578  0.85545318  0.22893971    -0.01160
C992        C  0.61861788  0.82809069  0.27204197     0.03820
C993        C  0.55794930  0.93475292  0.31380453     0.38470
C994        C  0.69657744  0.83330527  0.20825589     0.38460
C995        C  0.65200058  0.80595128  0.31200250     0.36880
C996        C  0.53298010  0.91354202  0.18192721     0.36880
N997        N  0.67969791  0.79083764  0.34547760    -0.37940
N998        N  0.49947584  0.91894632  0.15037953    -0.37940
N999        N  0.73655828  0.81722461  0.19095333    -0.37380
N1000       N  0.55616925  0.96633171  0.34931371    -0.37390
C1001       C  0.46076939  0.82127895  0.27685092    -0.04050
C1002       C  0.40995713  0.83595088  0.29595879    -0.01170
C1003       C  0.37728359  0.87368851  0.26637883     0.03820
C1004       C  0.39233986  0.89500989  0.21411622    -0.04050
C1005       C  0.42381964  0.85657582  0.18889886    -0.01160
C1006       C  0.45206992  0.81503951  0.21852871     0.03820
C1007       C  0.39806669  0.81996740  0.34853514     0.38470
C1008       C  0.39950740  0.84660481  0.13798829     0.38460
C1009       C  0.42733422  0.76349421  0.20170462     0.36880
C1010       C  0.34466538  0.90776635  0.29570517     0.36880
N1011       N  0.40269342  0.72523461  0.18790954    -0.37940
N1012       N  0.32580904  0.94879895  0.30337840    -0.37940
N1013       N  0.37232768  0.84148315  0.10062318    -0.37380
N1014       N  0.39380531  0.80145765  0.39005512    -0.37390
C1015       C  0.23781692  0.67797264  0.49560967    -0.04050
C1016       C  0.26582801  0.68426388  0.44632756    -0.01170
C1017       C  0.30974073  0.72311584  0.44793847     0.03820
C1018       C  0.31280688  0.75875368  0.49385635    -0.04050
C1019       C  0.31060630  0.72738106  0.54014319    -0.01160
C1020       C  0.27627101  0.68054056  0.53861614     0.03820
C1021       C  0.27394874  0.63503996  0.41459102     0.38470
C1022       C  0.35517584  0.73388626  0.57732046     0.38460
C1023       C  0.30555611  0.63145977  0.54650034     0.36880
C1024       C  0.36145586  0.70259576  0.43120745     0.36880
N1025       N  0.33279080  0.59402290  0.54739077    -0.37940
N1026       N  0.40254354  0.68322007  0.42220125    -0.37940
N1027       N  0.39303579  0.74347757  0.60329009    -0.37380
N1028       N  0.28577156  0.59495577  0.39277904    -0.37390
C1029       C  0.30788931  0.85245474  0.54447077    -0.04050
C1030       C  0.32597967  0.90377124  0.56522548    -0.01170
C1031       C  0.29403318  0.93717281  0.60091671     0.03820
C1032       C  0.23687544  0.92919490  0.60752284    -0.04050
C1033       C  0.21894952  0.87965730  0.58347195    -0.01160
C1034       C  0.25569389  0.83898627  0.56488307     0.03820
C1035       C  0.37923605  0.92189895  0.55513553     0.38470
C1036       C  0.16322345  0.87002625  0.57829398     0.38460
C1037       C  0.26211668  0.80323471  0.60772743     0.36880
C1038       C  0.31820583  0.98561997  0.62518215     0.36880
N1039       N  0.27252805  0.77914082  0.64541436    -0.37940
N1040       N  0.33443333  0.02676297  0.64239758    -0.37940
N1041       N  0.11752175  0.86434522  0.57502374    -0.37380
N1042       N  0.42253256  0.93929945  0.55258140    -0.37390
C1043       C  0.23864950  0.93022877  0.38166280    -0.04050
C1044       C  0.29131358  0.94112707  0.40664560    -0.01170
C1045       C  0.32460492  0.90227908  0.43293129     0.03820
C1046       C  0.30773398  0.85051021  0.44467783    -0.04050
C1047       C  0.26066176  0.83538672  0.41237047    -0.01160
C1048       C  0.22390164  0.87530633  0.39062258     0.03820
C1049       C  0.32210339  0.98741512  0.39676125     0.38470
C1050       C  0.27253045  0.79483943  0.37156499     0.38460
C1051       C  0.17285146  0.85872168  0.36953167     0.36880
C1052       C  0.38202348  0.91020658  0.43390031     0.36880
N1053       N  0.13253882  0.84952379  0.34745679    -0.37940
N1054       N  0.42753187  0.91956362  0.43299714    -0.37940
N1055       N  0.28548392  0.76507555  0.33728218    -0.37380
N1056       N  0.35841227  0.01323680  0.38445869    -0.37390
C1057       C  0.81460392  0.68294593  0.51782206    -0.04050
C1058       C  0.81182817  0.73700927  0.53626203    -0.01170
C1059       C  0.76414717  0.75902873  0.55305617     0.03820
C1060       C  0.72539079  0.75887962  0.51409931    -0.04050
C1061       C  0.71737231  0.70348980  0.49361955    -0.01160
C1062       C  0.76065375  0.66387686  0.50131566     0.03820
C1063       C  0.85634188  0.77199564  0.53505700     0.38470
C1064       C  0.66354572  0.68207999  0.48560068     0.38460
C1065       C  0.74334880  0.60841998  0.50681955     0.36880
C1066       C  0.74376901  0.74887255  0.60587991     0.36880
N1067       N  0.72535498  0.56566617  0.51373620    -0.37940
N1068       N  0.72653008  0.73826990  0.64752408    -0.37940
N1069       N  0.62151251  0.66120723  0.48254976    -0.37380
N1070       N  0.89496863  0.79768021  0.53762201    -0.37390
C1071       C  0.90504562  0.69122013  0.46571767    -0.04050
C1072       C  0.94694653  0.73370073  0.47007871    -0.01170
C1073       C  0.95060075  0.77785505  0.43574171     0.03820
C1074       C  0.95023972  0.76673699  0.38150939    -0.04050
C1075       C  0.89951854  0.73407867  0.37386341    -0.01160
C1076       C  0.88132372  0.69451800  0.41379316     0.03820
C1077       C  0.00125492  0.72327694  0.48176391     0.38470
C1078       C  0.86314736  0.74035039  0.32812430     0.38460
C1079       C  0.84403587  0.65138959  0.40011210     0.36880
C1080       C  0.95986136  0.83246884  0.45581979     0.36880
N1081       N  0.81446820  0.61529908  0.39360893    -0.37940
N1082       N  0.96624701  0.87628914  0.47325721    -0.37940
N1083       N  0.83695223  0.74074662  0.28933558    -0.37380
N1084       N  0.04480207  0.72015043  0.49813196    -0.37390
C1085       C  0.97459185  0.76447107  0.64042488    -0.04050
C1086       C  0.98151247  0.74458394  0.59050312    -0.01170
C1087       C  0.95879491  0.69148497  0.57153959     0.03820
C1088       C  0.90551926  0.68130381  0.57346201    -0.04050
C1089       C  0.88517572  0.71130528  0.62007388    -0.01160
C1090       C  0.91881130  0.75295459  0.65294597     0.03820
C1091       C  0.00349416  0.78987278  0.56245370     0.38470
C1092       C  0.83548616  0.68882753  0.63789158     0.38460
C1093       C  0.89724983  0.78555490  0.69618240     0.36880
C1094       C  0.98784407  0.64561892  0.54990845     0.36880
N1095       N  0.88670206  0.81427004  0.73217324    -0.37940
N1096       N  0.01235942  0.60978162  0.53330911    -0.37940
N1097       N  0.79919902  0.66263150  0.65026384    -0.37380
N1098       N  0.02642519  0.82338762  0.54078744    -0.37390
C1099       C  0.80136694  0.46907278  0.70021797    -0.04050
C1100       C  0.76122747  0.50698191  0.71362295    -0.01170
C1101       C  0.71684105  0.48707970  0.74607856     0.03820
C1102       C  0.72559229  0.44144036  0.77869451    -0.04050
C1103       C  0.76046231  0.40340251  0.75002725    -0.01160
C1104       C  0.77942564  0.41695185  0.69989131     0.03820
C1105       C  0.74984083  0.54510467  0.67243418     0.38470
C1106       C  0.77318548  0.34815548  0.75509052     0.38460
C1107       C  0.73846149  0.40240001  0.65967027     0.36880
C1108       C  0.66444751  0.48520178  0.72047661     0.36880
N1109       N  0.69991075  0.39117722  0.63505925    -0.37940
N1110       N  0.62373484  0.47958698  0.69774302    -0.37940
N1111       N  0.78752832  0.30411722  0.74931590    -0.37380
N1112       N  0.73720734  0.57232558  0.63763068    -0.37390
C1113       C  0.89045425  0.42854300  0.73076944    -0.04050
C1114       C  0.91692946  0.43760361  0.78314600    -0.01170
C1115       C  0.94596665  0.39859972  0.81468058     0.03820
C1116       C  0.95020075  0.34442781  0.79938358    -0.04050
C1117       C  0.91502821  0.33104113  0.75283560    -0.01160
C1118       C  0.89003256  0.37130291  0.71829365     0.03820
C1119       C  0.91471354  0.48455116  0.81600772     0.38470
C1120       C  0.89716497  0.27650031  0.74242815     0.38460
C1121       C  0.86776565  0.35402864  0.66647369     0.36880
C1122       C  0.97808774  0.41915537  0.86148103     0.36880
N1123       N  0.84789156  0.34327046  0.62510372    -0.37940
N1124       N  0.00346478  0.44444280  0.89316166    -0.37940
N1125       N  0.87901759  0.23364375  0.73503357    -0.37380
N1126       N  0.92346720  0.51134437  0.85402468    -0.37390
C1127       C  0.97012787  0.60349406  0.78729544    -0.04050
C1128       C  0.96406577  0.60009278  0.73014586    -0.01170
C1129       C  0.93893899  0.55416696  0.70335666     0.03820
C1130       C  0.88832721  0.53515887  0.71947589    -0.04050
C1131       C  0.87303917  0.56773534  0.76896061    -0.01160
C1132       C  0.91623765  0.59631421  0.80434179     0.03820
C1133       C  0.93410595  0.64436164  0.71277386     0.38470
C1134       C  0.82899016  0.60230769  0.76207227     0.38460
C1135       C  0.90904963  0.62237843  0.85477068     0.36880
C1136       C  0.94820148  0.55122704  0.64793714     0.36880
N1137       N  0.91249546  0.64570673  0.89542564    -0.37940
N1138       N  0.95684350  0.55505033  0.60303277    -0.37940
N1139       N  0.80199028  0.63875543  0.75429655    -0.37380
N1140       N  0.89899910  0.67302102  0.71747380    -0.37390
C1141       C  0.81535930  0.47646370  0.30292803    -0.04050
C1142       C  0.76175052  0.50096517  0.31036931    -0.01170
C1143       C  0.71814734  0.48882617  0.26799516     0.03820
C1144       C  0.73385616  0.46323482  0.21463138    -0.04050
C1145       C  0.78800643  0.45789356  0.21671458    -0.01160
C1146       C  0.80658234  0.43584983  0.26419490     0.03820
C1147       C  0.74644269  0.52346602  0.36177941     0.38470
C1148       C  0.80722536  0.51180063  0.20483638     0.38460
C1149       C  0.77709396  0.39080536  0.28751789     0.36880
C1150       C  0.66321361  0.49291165  0.28514910     0.36880
N1151       N  0.75107913  0.36043164  0.31103432    -0.37940
N1152       N  0.62009004  0.49528077  0.30212063    -0.37940
N1153       N  0.81439805  0.55495694  0.19020568    -0.37380
N1154       N  0.73019853  0.53919257  0.40273115    -0.37390
C1155       C  0.90931507  0.43574691  0.28517535    -0.04050
C1156       C  0.90144826  0.37918220  0.29043510    -0.01170
C1157       C  0.92381350  0.33773643  0.25280246     0.03820
C1158       C  0.96294972  0.35139313  0.21166127    -0.04050
C1159       C  0.96061856  0.40645807  0.20046713    -0.01160
C1160       C  0.92956876  0.44349928  0.23168984     0.03820
C1161       C  0.87631765  0.36761418  0.34030433     0.38470
C1162       C  0.99034892  0.42881432  0.15581345     0.38460
C1163       C  0.91450882  0.48591745  0.19974436     0.36880
C1164       C  0.89271986  0.28921771  0.24428169     0.36880
N1165       N  0.91104053  0.51501195  0.16503950    -0.37940
N1166       N  0.86343139  0.25407426  0.23224650    -0.37940
N1167       N  0.01257318  0.45356129  0.12370019    -0.37380
N1168       N  0.85571535  0.36752518  0.38189332    -0.37390
C1169       C  0.91014641  0.53899418  0.30207879    -0.04050
C1170       C  0.96666281  0.53748927  0.30235226    -0.01170
C1171       C  0.99733194  0.54948295  0.25599585     0.03820
C1172       C  0.98522638  0.59004997  0.21785310    -0.04050
C1173       C  0.92853650  0.60186535  0.22171731    -0.01160
C1174       C  0.89233877  0.57858811  0.26430990     0.03820
C1175       C  0.99357028  0.51117974  0.34463478     0.38470
C1176       C  0.90668825  0.63189682  0.17812660     0.38460
C1177       C  0.84259013  0.60576436  0.27721553     0.36880
C1178       C  0.03228938  0.50729869  0.23999892     0.36880
N1179       N  0.80192212  0.62691841  0.28366584    -0.37940
N1180       N  0.06061109  0.47340397  0.22709698    -0.37940
N1181       N  0.89376593  0.65478423  0.14036423    -0.37380
N1182       N  0.01644818  0.49047100  0.37833892    -0.37390
C1183       C  0.81736305  0.25989079  0.49183666    -0.04050
C1184       C  0.79879566  0.21866856  0.45311044    -0.01170
C1185       C  0.74611064  0.20083692  0.45183747     0.03820
C1186       C  0.72901989  0.18378237  0.50174975    -0.04050
C1187       C  0.73237520  0.22896450  0.53885929    -0.01160
C1188       C  0.77481643  0.27017336  0.53073487     0.03820
C1189       C  0.82934084  0.17790465  0.42777453     0.38470
C1190       C  0.68231652  0.24438161  0.56400875     0.38460
C1191       C  0.75969120  0.32512341  0.54058786     0.36880
C1192       C  0.70969722  0.23252918  0.42043563     0.36880
N1193       N  0.74358526  0.36867236  0.54224491    -0.37940
N1194       N  0.68093679  0.25813024  0.39516223    -0.37940
N1195       N  0.64225660  0.25713343  0.58361521    -0.37380
N1196       N  0.85074742  0.14402749  0.40400157    -0.37390
C1197       C  0.90518534  0.26402601  0.55038043    -0.04050
C1198       C  0.89480337  0.21139346  0.56964673    -0.01170
C1199       C  0.93706281  0.17530419  0.58857955     0.03820
C1200       C  0.98106480  0.19543704  0.61951355    -0.04050
C1201       C  0.97891239  0.25353645  0.61838656    -0.01160
C1202       C  0.94682689  0.28696849  0.58366103     0.03820
C1203       C  0.85434951  0.21888485  0.60985266     0.38470
C1204       C  0.99561669  0.27705207  0.66389484     0.38460
C1205       C  0.96249217  0.34216307  0.57928984     0.36880
C1206       C  0.93024416  0.11830020  0.58351697     0.36880
N1207       N  0.97652615  0.38643446  0.57532297    -0.37940
N1208       N  0.92283706  0.07237960  0.57761609    -0.37940
N1209       N  0.00386624  0.28423597  0.70773987    -0.37380
N1210       N  0.82417548  0.23119378  0.64266901    -0.37390
C1211       C  0.91382306  0.25489875  0.44358570    -0.04050
C1212       C  0.90045869  0.24411903  0.38594732    -0.01170
C1213       C  0.92494679  0.19921967  0.35363756     0.03820
C1214       C  0.96630404  0.16549490  0.37385512    -0.04050
C1215       C  0.96873667  0.16956270  0.43071279    -0.01160
C1216       C  0.95423480  0.21780129  0.45889777     0.03820
C1217       C  0.85028002  0.26197586  0.36291185     0.38470
C1218       C  0.99490367  0.12956769  0.46220403     0.38460
C1219       C  0.99442813  0.23545204  0.49535772     0.36880
C1220       C  0.89414731  0.17641228  0.30907216     0.36880
N1221       N  0.02777301  0.24934773  0.52479284    -0.37940
N1222       N  0.86493254  0.15866466  0.27648246    -0.37940
N1223       N  0.01355828  0.09969507  0.49176567    -0.37380
N1224       N  0.80872629  0.26977797  0.34355597    -0.37390
loop_ 
_geom_bond_atom_site_label_1 
_geom_bond_atom_site_label_2 
_geom_bond_distance 
_geom_bond_site_symmetry_2 
_ccdc_geom_bond_type 
C1           C18   1.755       .  S
C1         C1183   1.652       .  S
C1         C1197   1.669       .  S
C1         C1211   1.707       .  S
C2           C16   1.714       .  S
C2         C1141   1.629       .  S
C2         C1155   1.706       .  S
C2         C1169   1.662       .  S
C3           C15   1.792       .  S
C3         C1099   1.583       .  S
C3         C1113   1.708       .  S
C3         C1130   1.691       .  S
C4           C17   1.747       .  S
C4         C1057   1.643       .  S
C4         C1071   1.713       .  S
C4         C1088   1.679       .  S
O5          Ni13   2.132       .  S
O5           C15   1.322       .  A
O6          Ni13   2.052       .  S
O6           C16   1.304       .  A
O7          Ni13   2.086       .  S
O7           C17   1.308       .  A
O8          Ni13   2.077       .  S
O8           C18   1.302       .  A
O9          Ni14   2.098       .  S
O9           C18   1.315       .  A
O10         Ni14   2.072       .  S
O10          C17   1.307       .  A
O11         Ni14   2.059       .  S
O11          C16   1.309       .  A
O12         Ni14   2.089       .  S
O12          C15   1.313       .  A
Ni13        Ni14   2.291       .  S
C19          C35   1.748       .  S
C19        C1018   1.574       .  S
C19        C1029   1.644       .  S
C19        C1046   1.665       .  S
C20          C34   1.777       .  S
C20         C973   1.599       .  S
C20         C987   1.672       .  S
C20        C1001   1.714       .  S
C21          C33   1.787       .  S
C21         C931   1.645       .  S
C21         C945   1.747       .  S
C21         C959   1.658       .  S
C22          C36   1.750       .  S
C22         C903   1.631       .  S
C22         C920   1.697       .  S
C22        C1060   1.611       .  S
O23         Ni31   2.140       .  S
O23          C33   1.322       .  A
O24         Ni31   2.128       .  S
O24          C34   1.323       .  A
O25         Ni31   2.007       .  S
O25          C35   1.282       .  A
O26         Ni31   2.049       .  S
O26          C36   1.303       .  A
O27         Ni32   2.094       .  S
O27          C36   1.315       .  A
O28         Ni32   2.093       .  S
O28          C35   1.315       .  A
O29         Ni32   2.099       .  S
O29          C34   1.318       .  A
O30         Ni32   2.094       .  S
O30          C33   1.323       .  A
Ni31        Ni32   2.287       .  S
C37          C52   1.781       .  S
C37         C861   1.624       .  S
C37         C875   1.730       .  S
C37         C892   1.626       .  S
C38          C54   1.747       .  S
C38         C819   1.618       .  S
C38         C833   1.681       .  S
C38         C847   1.652       .  S
C39          C53   1.786       .  S
C39         C791   1.647       .  S
C39         C805   1.771       .  S
C39        C1102   1.605       .  S
C40          C51   1.752       .  S
C40         C763   1.672       .  S
C40         C777   1.695       .  S
C40         C934   1.663       .  S
O41         Ni49   2.081       .  S
O41          C51   1.314       .  A
O42         Ni49   2.101       .  S
O42          C52   1.312       .  A
O43         Ni49   2.112       .  S
O43          C53   1.323       .  A
O44         Ni49   2.101       .  S
O44          C54   1.317       .  A
O45         Ni50   2.080       .  S
O45          C54   1.317       .  A
O46         Ni50   2.098       .  S
O46          C53   1.315       .  A
O47         Ni50   2.083       .  S
O47          C52   1.315       .  A
O48         Ni50   2.093       .  S
O48          C51   1.315       .  A
Ni49        Ni50   2.296       .  S
C55          C69   1.834       .  S
C55         C735   1.644       .  S
C55         C749   1.771   1_565  S
C55         C962   1.634       .  S
C56          C71   1.745   1_554  S
C56         C707   1.666       .  S
C56         C721   1.688       .  S
C56         C780   1.682   1_554  S
C57          C72   1.710       .  S
C57         C679   1.625       .  S
C57         C693   1.677       .  S
C57         C889   1.652   1_554  S
C58          C70   1.809       .  S
C58         C651   1.650       .  S
C58         C668   1.732   1_565  S
C58        C1004   1.710       .  S
O59         Ni67   2.169       .  S
O59          C69   1.341       .  A
O60         Ni67   2.161   1_554  S
O60          C70   1.335       .  A
O61         Ni67   2.067       .  S
O61          C71   1.303       .  A
O62         Ni67   2.044   1_544  S
O62          C72   1.300       .  A
O63         Ni68   2.065   1_544  S
O63          C72   1.310       .  A
O64         Ni68   2.086       .  S
O64          C71   1.320       .  A
O65         Ni68   2.097   1_554  S
O65          C70   1.318       .  A
O66         Ni68   2.134       .  S
O66          C69   1.324       .  A
Ni67        Ni68   2.299       .  S
C73          C87   1.691       .  S
C73         C623   1.622       .  S
C73         C640   1.670       .  S
C73        C1127   1.723   1_455  S
C74          C89   1.716       .  S
C74         C595   1.632       .  S
C74         C609   1.723   1_556  S
C74         C808   1.715       .  S
C75          C90   1.722       .  S
C75         C581   1.704   1_556  S
C75         C710   1.614       .  S
C75         C836   1.752       .  S
C76          C88   1.722       .  S
C76         C556   1.644       .  S
C76         C570   1.688       .  S
C76        C1172   1.706   1_455  S
O77         Ni85   2.057       .  S
O77          C87   1.301       .  A
O78         Ni85   2.093   1_554  S
O78          C88   1.312       .  A
O79         Ni85   2.023   1_655  S
O79          C89   1.294       .  A
O80         Ni85   2.014   1_554  S
O80          C90   1.287   1_554  A
O81         Ni86   2.085   1_556  S
O81          C90   1.309       .  A
O82         Ni86   2.084   1_655  S
O82          C89   1.313   1_554  A
O83         Ni86   2.051       .  S
O83          C88   1.312       .  A
O84         Ni86   2.047   1_556  S
O84          C87   1.308       .  A
Ni85        Ni86   2.302   1_556  S
C91         C108   1.735       .  S
C91         C539   1.696   1_556  S
C91         C598   1.601       .  S
C91         C766   1.664       .  S
C92         C105   1.673       .  S
C92         C511   1.613       .  S
C92         C525   1.747   1_565  S
C92         C948   1.660       .  S
C93         C107   1.732       .  S
C93         C483   1.619   1_554  S
C93         C497   1.724       .  S
C93         C878   1.697   1_554  S
C94         C106   1.684       .  S
C94         C455   1.628       .  S
C94         C472   1.613   1_565  S
C94         C990   1.683       .  S
O95        Ni103   1.961       .  S
O95         C105   1.277       .  A
O96        Ni103   1.988   1_554  S
O96         C106   1.280       .  A
O97        Ni103   2.041   1_544  S
O97         C107   1.302       .  A
O98        Ni103   2.044       .  S
O98         C108   1.299       .  A
O99        Ni104   2.096       .  S
O99         C108   1.321       .  A
O100       Ni104   2.067   1_545  S
O100        C107   1.307   1_556  A
O101       Ni104   2.065   1_554  S
O101        C106   1.306       .  A
O102       Ni104   2.028       .  S
O102        C105   1.297       .  A
Ni103      Ni104   2.290       .  S
C109        C126   1.752       .  S
C109        C427   1.634       .  S
C109        C444   1.663       .  S
C109        C584   1.733       .  S
C110        C124   1.718       .  S
C110        C413   1.617       .  S
C110        C500   1.688       .  S
C110        C696   1.643       .  S
C111        C123   1.724       .  S
C111        C542   1.636       .  S
C111        C724   1.665       .  S
C111        C976   1.595       .  S
C112        C125   1.729       .  S
C112        C399   1.644       .  S
C112        C612   1.719       .  S
C112       C1144   1.624       .  S
O113       Ni121   2.067       .  S
O113        C123   1.310       .  A
O114       Ni121   2.064       .  S
O114        C124   1.316       .  A
O115       Ni121   2.056       .  S
O115        C125   1.299       .  A
O116       Ni121   2.089       .  S
O116        C126   1.312       .  A
O117       Ni122   2.045       .  S
O117        C126   1.301       .  A
O118       Ni122   2.057       .  S
O118        C125   1.296       .  A
O119       Ni122   2.076       .  S
O119        C124   1.303       .  A
O120       Ni122   2.015       .  S
O120        C123   1.291       .  A
Ni121      Ni122   2.285       .  S
C127        C144   1.754       .  S
C127        C402   1.667       .  S
C127        C486   1.647   1_554  S
C127        C794   1.679   1_554  S
C128        C141   1.774       .  S
C128        C371   1.609       .  S
C128        C385   1.761       .  S
C128       C1116   1.651   1_455  S
C129        C143   1.794   1_556  S
C129        C441   1.761   1_556  S
C129        C682   1.629   1_556  S
C129        C850   1.697       .  S
C130        C142   1.766       .  S
C130        C343   1.635       .  S
C130        C360   1.694       .  S
C130       C1158   1.643   1_455  S
O131       Ni139   2.022   1_556  S
O131        C141   1.294       .  A
O132       Ni139   2.020       .  S
O132        C142   1.290       .  A
O133       Ni139   2.121       .  S
O133        C143   1.321       .  A
O134       Ni139   2.097   1_655  S
O134        C144   1.314       .  A
O135       Ni140   2.103   1_655  S
O135        C144   1.321       .  A
O136       Ni140   2.104       .  S
O136        C143   1.316       .  A
O137       Ni140   2.110       .  S
O137        C142   1.317       .  A
O138       Ni140   2.109   1_556  S
O138        C141   1.322       .  A
Ni139      Ni140   2.279       .  S
C145        C161   1.756       .  S
C145        C329   1.682   1_565  S
C145        C514   1.643       .  S
C145        C917   1.693       .  S
C146        C159   1.744       .  S
C146        C318   1.774       .  S
C146        C626   1.631       .  S
C146       C1085   1.698   1_455  S
C147        C160   1.759       .  S
C147        C301   1.660       .  S
C147        C374   1.637       .  S
C147       C1200   1.705   1_455  S
C148        C162   1.695       .  S
C148        C290   1.680   1_565  S
C148        C738   1.612       .  S
C148       C1032   1.658       .  S
O149       Ni157   2.060       .  S
O149        C159   1.301       .  A
O150       Ni157   2.063   1_545  S
O150        C160   1.310       .  A
O151       Ni157   2.117   1_655  S
O151        C161   1.325       .  A
O152       Ni157   2.065       .  S
O152        C162   1.318       .  A
O153       Ni158   2.026       .  S
O153        C162   1.291       .  A
O154       Ni158   2.059   1_655  S
O154        C161   1.305       .  A
O155       Ni158   2.092   1_545  S
O155        C160   1.319       .  A
O156       Ni158   2.085       .  S
O156        C159   1.320       .  A
Ni157      Ni158   2.306       .  S
C163        C179   1.761       .  S
C163        C259   1.613       .  S
C163        C276   1.675       .  S
C163        C304   1.658       .  S
C164        C178   1.759       .  S
C164        C357   1.652       .  S
C164        C430   1.615       .  S
C164        C567   1.670       .  S
C165        C177   1.764       .  S
C165        C388   1.694       .  S
C165        C637   1.669       .  S
C165        C822   1.613       .  S
C166        C180   1.743       .  S
C166        C248   1.686       .  S
C166        C315   1.686       .  S
C166       C1015   1.589       .  S
O167       Ni175   2.049       .  S
O167        C177   1.301       .  A
O168       Ni175   2.075       .  S
O168        C178   1.304       .  A
O169       Ni175   2.083       .  S
O169        C179   1.304       .  A
O170       Ni175   2.007       .  S
O170        C180   1.286       .  A
O171       Ni176   2.113       .  S
O171        C180   1.323       .  A
O172       Ni176   2.099       .  S
O172        C179   1.320       .  A
O173       Ni176   2.084       .  S
O173        C178   1.309       .  A
O174       Ni176   2.110       .  S
O174        C177   1.322       .  A
Ni175      Ni176   2.283       .  S
C181        C198   1.795       .  S
C181        C234   1.718       .  S
C181        C262   1.622       .  S
C181        C287   1.726       .  S
C182        C196   1.781       .  S
C182        C416   1.629       .  S
C182        C469   1.727       .  S
C182        C665   1.707       .  S
C183        C195   1.755       .  S
C183        C528   1.700       .  S
C183        C752   1.650       .  S
C183        C864   1.631       .  S
C184        C197   1.716       .  S
C184        C217   1.717       .  S
C184        C332   1.671       .  S
C184       C1186   1.607       .  S
O185       Ni193   2.039       .  S
O185        C195   1.298       .  A
O186       Ni193   2.080       .  S
O186        C196   1.301       .  A
O187       Ni193   2.065       .  S
O187        C197   1.307       .  A
O188       Ni193   2.131       .  S
O188        C198   1.323       .  A
O189       Ni194   2.103       .  S
O189        C198   1.314       .  A
O190       Ni194   2.068       .  S
O190        C197   1.315       .  A
O191       Ni194   2.117       .  S
O191        C196   1.321       .  A
O192       Ni194   2.098       .  S
O192        C195   1.317       .  A
Ni193      Ni194   2.286       .  S
C199        C215   1.713       .  S
C199        C245   1.738       .  S
C199        C553   1.655       .  S
C199       C1074   1.700   1_455  S
C200        C213   1.763       .  S
C200        C220   1.642   1_565  S
C200        C458   1.639       .  S
C200        C906   1.704       .  S
C201        C214   1.754       .  S
C201        C231   1.720   1_565  S
C201        C654   1.655       .  S
C201       C1043   1.705       .  S
C202        C216   1.709       .  S
C202        C273   1.664       .  S
C202        C346   1.628       .  S
C202       C1214   1.641   1_455  S
O203       Ni211   2.081   1_655  S
O203        C213   1.309       .  A
O204       Ni211   2.100       .  S
O204        C214   1.319       .  A
O205       Ni211   2.062       .  S
O205        C215   1.311       .  A
O206       Ni211   2.047   1_545  S
O206        C216   1.304       .  A
O207       Ni212   2.075   1_545  S
O207        C216   1.312       .  A
O208       Ni212   2.030       .  S
O208        C215   1.293       .  A
O209       Ni212   2.058       .  S
O209        C214   1.302       .  A
O210       Ni212   2.083   1_655  S
O210        C213   1.307       .  A
Ni211      Ni212   2.295       .  S
C217        C218   1.398       .  A
C217        C222   1.427       .  A
C218        C219   1.493       .  A
C218        C223   1.411       .  S
C219        C220   1.450       .  A
C219        C226   1.402       .  S
C220        C221   1.385       .  A
C221        C222   1.424       .  A
C221        C224   1.425       .  S
C222        C225   1.382       .  S
C223        N230   1.154       .  T
C224        N229   1.150       .  T
C225        N227   1.124       .  T
C226        N228   1.147       .  T
C231        C232   1.494       .  A
C231        C236   1.424       .  A
C232        C233   1.496       .  A
C232        C237   1.428       .  S
C233        C234   1.409       .  A
C233        C240   1.422       .  S
C234        C235   1.431       .  A
C235        C236   1.448       .  A
C235        C238   1.398       .  S
C236        C239   1.434       .  S
C237        N244   1.155       .  T
C238        N243   1.140       .  T
C239        N241   1.157       .  T
C240        N242   1.151       .  T
C245        C246   1.447       .  A
C245        C250   1.505       .  A
C246        C247   1.456       .  A
C246        C251   1.435       .  S
C247        C248   1.438       .  A
C247        C254   1.432       .  S
C248        C249   1.441       .  A
C249        C250   1.479       .  A
C249        C252   1.440       .  S
C250        C253   1.470       .  S
C251        N258   1.156       .  T
C252        N257   1.155       .  T
C253        N255   1.158   1_455  T
C254        N256   1.153       .  T
C259        C260   1.402       .  A
C259        C264   1.449       .  A
C260        C261   1.443       .  A
C260        C265   1.447       .  S
C261        C262   1.447       .  A
C261        C268   1.426       .  S
C262        C263   1.382       .  A
C263        C264   1.409       .  A
C263        C266   1.438       .  S
C264        C267   1.423       .  S
C265        N272   1.155       .  T
C266        N271   1.153       .  T
C267        N269   1.155       .  T
C268        N270   1.154       .  T
C273        C274   1.409       .  A
C273        C278   1.429       .  A
C274        C275   1.464       .  A
C274        C279   1.436       .  S
C275        C276   1.497       .  A
C275        C282   1.433       .  S
C276        C277   1.421       .  A
C277        C278   1.423       .  A
C277        C280   1.437       .  S
C278        C281   1.411       .  S
C279        N286   1.151       .  T
C280        N285   1.159       .  T
C281        N283   1.147   1_455  T
C282        N284   1.156       .  T
C287        C288   1.405       .  A
C287        C292   1.473       .  A
C288        C289   1.455       .  A
C288        C293   1.386       .  S
C289        C290   1.442       .  A
C289        C296   1.434   1_545  S
C290        C291   1.398       .  A
C291        C292   1.475       .  A
C291        C294   1.408       .  S
C292        C295   1.409       .  S
C293        N300   1.143       .  T
C294        N299   1.143       .  T
C295        N297   1.150       .  T
C296        N298   1.154       .  T
C301        C302   1.375       .  A
C301        C306   1.468       .  A
C302        C303   1.431       .  A
C302        C307   1.433       .  S
C303        C304   1.455       .  A
C303        C310   1.404       .  S
C304        C305   1.405       .  A
C305        C306   1.469       .  A
C305        C308   1.450       .  S
C306        C309   1.412       .  S
C307        N314   1.148       .  T
C308        N313   1.155       .  T
C309        N311   1.149       .  T
C310        N312   1.148       .  T
C315        C316   1.451       .  A
C315        C320   1.366       .  A
C316        C317   1.514       .  A
C316        C321   1.456       .  S
C317        C318   1.439       .  A
C317        C324   1.431       .  S
C318        C319   1.469       .  A
C319        C320   1.454       .  A
C319        C322   1.377       .  S
C320        C323   1.440       .  S
C321        N328   1.157       .  T
C322        N327   1.132       .  T
C323        N325   1.148       .  T
C324        N326   1.152       .  T
C329        C330   1.450       .  A
C329        C334   1.413       .  A
C330        C331   1.491       .  A
C330        C335   1.432       .  S
C331        C332   1.462       .  A
C331        C338   1.433       .  S
C332        C333   1.402       .  A
C333        C334   1.441       .  A
C333        C336   1.429       .  S
C334        C337   1.420   1_545  S
C335        N342   1.156       .  T
C336        N341   1.153   1_545  T
C337        N339   1.150       .  T
C338        N340   1.156       .  T
C343        C344   1.453   1_455  A
C343        C348   1.445       .  A
C344        C345   1.459       .  A
C344        C349   1.438       .  S
C345        C346   1.411   1_655  A
C345        C352   1.441       .  S
C346        C347   1.408       .  A
C347        C348   1.381       .  A
C347        C350   1.437       .  S
C348        C351   1.419       .  S
C349        N356   1.159       .  T
C350        N355   1.155       .  T
C351        N353   1.152       .  T
C352        N354   1.153       .  T
C357        C358   1.392       .  A
C357        C362   1.430       .  A
C358        C359   1.443       .  A
C358        C363   1.416       .  S
C359        C360   1.473       .  A
C359        C366   1.425       .  S
C360        C361   1.412       .  A
C361        C362   1.464       .  A
C361        C364   1.409       .  S
C362        C365   1.421       .  S
C363        N370   1.147       .  T
C364        N369   1.150       .  T
C365        N367   1.156       .  T
C366        N368   1.160   1_455  T
C371        C372   1.383       .  A
C371        C376   1.415   1_455  A
C372        C373   1.434       .  A
C372        C377   1.429       .  S
C373        C374   1.456       .  A
C373        C380   1.433       .  S
C374        C375   1.414   1_455  A
C375        C376   1.446       .  A
C375        C378   1.426       .  S
C376        C379   1.436       .  S
C377        N384   1.151       .  T
C378        N383   1.152       .  T
C379        N381   1.156       .  T
C380        N382   1.157       .  T
C385        C386   1.511       .  A
C385        C390   1.400       .  A
C386        C387   1.459       .  A
C386        C391   1.415       .  S
C387        C388   1.395       .  A
C387        C394   1.438       .  S
C388        C389   1.447       .  A
C389        C390   1.469       .  A
C389        C392   1.381       .  S
C390        C393   1.422       .  S
C391        N398   1.152   1_455  T
C392        N397   1.136       .  T
C393        N395   1.146       .  T
C394        N396   1.154       .  T
C399        C400   1.466       .  A
C399        C404   1.390       .  A
C400        C401   1.466       .  A
C400        C405   1.434       .  S
C401        C402   1.407       .  A
C401        C408   1.433       .  S
C402        C403   1.457       .  A
C403        C404   1.421       .  A
C403        C406   1.402   1_554  S
C404        C407   1.459       .  S
C405        N412   1.158       .  T
C406        N411   1.157       .  T
C407        N409   1.159       .  T
C408        N410   1.154       .  T
C413        C414   1.435       .  A
C413        C418   1.384       .  A
C414        C415   1.447       .  A
C414        C419   1.431       .  S
C415        C416   1.416       .  A
C415        C422   1.446       .  S
C416        C417   1.473       .  A
C417        C418   1.389       .  A
C417        C420   1.417       .  S
C418        C421   1.445       .  S
C419        N426   1.151       .  T
C420        N425   1.156       .  T
C421        N423   1.157       .  T
C422        N424   1.158       .  T
C427        C428   1.415       .  A
C427        C432   1.417       .  A
C428        C429   1.461       .  A
C428        C433   1.445       .  S
C429        C430   1.437       .  A
C429        C436   1.442       .  S
C430        C431   1.437       .  A
C431        C432   1.404       .  A
C431        C434   1.453       .  S
C432        C435   1.431       .  S
C433        N440   1.158       .  T
C434        N439   1.154       .  T
C435        N437   1.151       .  T
C436        N438   1.158       .  T
C441        C442   1.472       .  A
C441        C446   1.475       .  A
C442        C443   1.497       .  A
C442        C447   1.443       .  S
C443        C444   1.461       .  A
C443        C450   1.427       .  S
C444        C445   1.399       .  A
C445        C446   1.445       .  A
C445        C448   1.461       .  S
C446        C449   1.410   1_554  S
C447        N454   1.158       .  T
C448        N453   1.160       .  T
C449        N451   1.147       .  T
C450        N452   1.158       .  T
C455        C456   1.405       .  A
C455        C460   1.460       .  A
C456        C457   1.357       .  A
C456        C461   1.395       .  S
C457        C458   1.388       .  A
C457        C464   1.421       .  S
C458        C459   1.459       .  A
C459        C460   1.477       .  A
C459        C462   1.440       .  S
C460        C463   1.442       .  S
C461        N468   1.142       .  T
C462        N467   1.158       .  T
C463        N465   1.158       .  T
C464        N466   1.152       .  T
C469        C470   1.484       .  A
C469        C474   1.481       .  A
C470        C471   1.463       .  A
C470        C475   1.437       .  S
C471        C472   1.406       .  A
C471        C478   1.443       .  S
C472        C473   1.369       .  A
C473        C474   1.435       .  A
C473        C476   1.478       .  S
C474        C477   1.399       .  S
C475        N482   1.164       .  T
C476        N481   1.158   1_545  T
C477        N479   1.151       .  T
C478        N480   1.156       .  T
C483        C484   1.439   1_556  A
C483        C488   1.384       .  A
C484        C485   1.477       .  A
C484        C489   1.440       .  S
C485        C486   1.466   1_554  A
C485        C492   1.424       .  S
C486        C487   1.397       .  A
C487        C488   1.385       .  A
C487        C490   1.447       .  S
C488        C491   1.369       .  S
C489        N496   1.155       .  T
C490        N495   1.155       .  T
C491        N493   1.152       .  T
C492        N494   1.153       .  T
C497        C498   1.380       .  A
C497        C502   1.479       .  A
C498        C499   1.444       .  A
C498        C503   1.387       .  S
C499        C500   1.444       .  A
C499        C506   1.415       .  S
C500        C501   1.397       .  A
C501        C502   1.480       .  A
C501        C504   1.423       .  S
C502        C505   1.427       .  S
C503        N510   1.149       .  T
C504        N509   1.154       .  T
C505        N507   1.153       .  T
C506        N508   1.146       .  T
C511        C512   1.363       .  A
C511        C516   1.451       .  A
C512        C513   1.368       .  A
C512        C517   1.395       .  S
C513        C514   1.426       .  A
C513        C520   1.437       .  S
C514        C515   1.444   1_565  A
C515        C516   1.478   1_545  A
C515        C518   1.438       .  S
C516        C519   1.442   1_565  S
C517        N524   1.143       .  T
C518        N523   1.156       .  T
C519        N521   1.156       .  T
C520        N522   1.153       .  T
C525        C526   1.404       .  A
C525        C530   1.449       .  A
C526        C527   1.471       .  A
C526        C531   1.388       .  S
C527        C528   1.439       .  A
C527        C534   1.412       .  S
C528        C529   1.392       .  A
C529        C530   1.498       .  A
C529        C532   1.433       .  S
C530        C533   1.405       .  S
C531        N538   1.137       .  T
C532        N537   1.151       .  T
C533        N535   1.143       .  T
C534        N536   1.146       .  T
C539        C540   1.426       .  A
C539        C544   1.455       .  A
C540        C541   1.463       .  A
C540        C545   1.415       .  S
C541        C542   1.435       .  A
C541        C548   1.436       .  S
C542        C543   1.378       .  A
C543        C544   1.434       .  A
C543        C546   1.442       .  S
C544        C547   1.398   1_554  S
C545        N552   1.149       .  T
C546        N551   1.152       .  T
C547        N549   1.155       .  T
C548        N550   1.157       .  T
C553        C554   1.441       .  A
C553        C558   1.426   1_455  A
C554        C555   1.453       .  A
C554        C559   1.437       .  S
C555        C556   1.448       .  A
C555        C562   1.434       .  S
C556        C557   1.411   1_455  A
C557        C558   1.418       .  A
C557        C560   1.442       .  S
C558        C561   1.360       .  S
C559        N566   1.157       .  T
C560        N565   1.157       .  T
C561        N563   1.143       .  T
C562        N564   1.154       .  T
C567        C568   1.477       .  A
C567        C572   1.371       .  A
C568        C569   1.468       .  A
C568        C573   1.390       .  S
C569        C570   1.373       .  A
C569        C576   1.410       .  S
C570        C571   1.428       .  A
C571        C572   1.417       .  A
C571        C574   1.303       .  S
C572        C575   1.407       .  S
C573        N580   1.145       .  T
C574        N579   1.109       .  T
C575        N577   1.144       .  T
C576        N578   1.152       .  T
C581        C582   1.483       .  A
C581        C586   1.378       .  A
C582        C583   1.489       .  A
C582        C587   1.438       .  S
C583        C584   1.418       .  A
C583        C590   1.434       .  S
C584        C585   1.470       .  A
C585        C586   1.456       .  A
C585        C588   1.366       .  S
C586        C589   1.459       .  S
C587        N594   1.154       .  T
C588        N593   1.136       .  T
C589        N591   1.161       .  T
C590        N592   1.154       .  T
C595        C596   1.397   1_556  A
C595        C600   1.484       .  A
C596        C597   1.379       .  A
C596        C601   1.437   1_554  S
C597        C598   1.378   1_554  A
C597        C604   1.458       .  S
C598        C599   1.452       .  A
C599        C600   1.495       .  A
C599        C602   1.441       .  S
C600        C603   1.441       .  S
C601        N608   1.154       .  T
C602        N607   1.157       .  T
C603        N605   1.158       .  T
C604        N606   1.157       .  T
C609        C610   1.472       .  A
C609        C614   1.401       .  A
C610        C611   1.467       .  A
C610        C615   1.447       .  S
C611        C612   1.416       .  A
C611        C618   1.425       .  S
C612        C613   1.507       .  A
C613        C614   1.482       .  A
C613        C616   1.420       .  S
C614        C617   1.440       .  S
C615        N622   1.157       .  T
C616        N621   1.152       .  T
C617        N619   1.156       .  T
C618        N620   1.148       .  T
C623        C624   1.330       .  A
C623        C628   1.517       .  A
C624        C625   1.418       .  A
C624        C629   1.475       .  S
C625        C626   1.346       .  A
C625        C632   1.497   1_455  S
C626        C627   1.499       .  A
C627        C628   1.546       .  A
C627        C630   1.436       .  S
C628        C631   1.439       .  S
C629        N636   1.155       .  T
C630        N635   1.157       .  T
C631        N633   1.157       .  T
C632        N634   1.159       .  T
C637        C638   1.481       .  A
C637        C642   1.404       .  A
C638        C639   1.482       .  A
C638        C643   1.422       .  S
C639        C640   1.418       .  A
C639        C646   1.434       .  S
C640        C641   1.410       .  A
C641        C642   1.405       .  A
C641        C644   1.365       .  S
C642        C645   1.442       .  S
C643        N650   1.154       .  T
C644        N649   1.123       .  T
C645        N647   1.155       .  T
C646        N648   1.154       .  T
C651        C652   1.427       .  A
C651        C656   1.432       .  A
C652        C653   1.445       .  A
C652        C657   1.448       .  S
C653        C654   1.457       .  A
C653        C660   1.429       .  S
C654        C655   1.412       .  A
C655        C656   1.459       .  A
C655        C658   1.443   1_565  S
C656        C659   1.445   1_565  S
C657        N664   1.155       .  T
C658        N663   1.157       .  T
C659        N661   1.157       .  T
C660        N662   1.156       .  T
C665        C666   1.379       .  A
C665        C670   1.484       .  A
C666        C667   1.437   1_545  A
C666        C671   1.442       .  S
C667        C668   1.473   1_565  A
C667        C674   1.393       .  S
C668        C669   1.445       .  A
C669        C670   1.499       .  A
C669        C672   1.428       .  S
C670        C673   1.434       .  S
C671        N678   1.155       .  T
C672        N677   1.153       .  T
C673        N675   1.155       .  T
C674        N676   1.151       .  T
C679        C680   1.423       .  A
C679        C684   1.455   1_554  A
C680        C681   1.382       .  A
C680        C685   1.424       .  S
C681        C682   1.393       .  A
C681        C688   1.452       .  S
C682        C683   1.457   1_554  A
C683        C684   1.488       .  A
C683        C686   1.439       .  S
C684        C687   1.439       .  S
C685        N692   1.154       .  T
C686        N691   1.157       .  T
C687        N689   1.158       .  T
C688        N690   1.156       .  T
C693        C694   1.489       .  A
C693        C698   1.377       .  A
C694        C695   1.474       .  A
C694        C699   1.451       .  S
C695        C696   1.397       .  A
C695        C702   1.422       .  S
C696        C697   1.420       .  A
C697        C698   1.418       .  A
C697        C700   1.420       .  S
C698        C701   1.395       .  S
C699        N706   1.158       .  T
C700        N705   1.150       .  T
C701        N703   1.147       .  T
C702        N704   1.156       .  T
C707        C708   1.475       .  A
C707        C712   1.421   1_554  A
C708        C709   1.486       .  A
C708        C713   1.437       .  S
C709        C710   1.438   1_554  A
C709        C716   1.445       .  S
C710        C711   1.370       .  A
C711        C712   1.392       .  A
C711        C714   1.454       .  S
C712        C715   1.421       .  S
C713        N720   1.157       .  T
C714        N719   1.157       .  T
C715        N717   1.156       .  T
C716        N718   1.157       .  T
C721        C722   1.431       .  A
C721        C726   1.439       .  A
C722        C723   1.471       .  A
C722        C727   1.456       .  S
C723        C724   1.461       .  A
C723        C730   1.405       .  S
C724        C725   1.393       .  A
C725        C726   1.443       .  A
C725        C728   1.449       .  S
C726        C729   1.369       .  S
C727        N734   1.157       .  T
C728        N733   1.158       .  T
C729        N731   1.139       .  T
C730        N732   1.141       .  T
C735        C736   1.444   1_565  A
C735        C740   1.447       .  A
C736        C737   1.480       .  A
C736        C741   1.430       .  S
C737        C738   1.435   1_545  A
C737        C744   1.444       .  S
C738        C739   1.395       .  A
C739        C740   1.381       .  A
C739        C742   1.444       .  S
C740        C743   1.391       .  S
C741        N748   1.151       .  T
C742        N747   1.153       .  T
C743        N745   1.143       .  T
C744        N746   1.157       .  T
C749        C750   1.458       .  A
C749        C754   1.479       .  A
C750        C751   1.487       .  A
C750        C755   1.438       .  S
C751        C752   1.435       .  A
C751        C758   1.418       .  S
C752        C753   1.386       .  A
C753        C754   1.438       .  A
C753        C756   1.453       .  S
C754        C757   1.416   1_545  S
C755        N762   1.158       .  T
C756        N761   1.159   1_545  T
C757        N759   1.147       .  T
C758        N760   1.155       .  T
C763        C764   1.403       .  A
C763        C768   1.417       .  A
C764        C765   1.495       .  A
C764        C769   1.406       .  S
C765        C766   1.469       .  A
C765        C772   1.422       .  S
C766        C767   1.429       .  A
C767        C768   1.425       .  A
C767        C770   1.423       .  S
C768        C771   1.436       .  S
C769        N776   1.148       .  T
C770        N775   1.155       .  T
C771        N773   1.156       .  T
C772        N774   1.155       .  T
C777        C778   1.486       .  A
C777        C782   1.394       .  A
C778        C779   1.485       .  A
C778        C783   1.444       .  S
C779        C780   1.414       .  A
C779        C786   1.424       .  S
C780        C781   1.430       .  A
C781        C782   1.414       .  A
C781        C784   1.387       .  S
C782        C785   1.427       .  S
C783        N790   1.155       .  T
C784        N789   1.141   1_556  T
C785        N787   1.155       .  T
C786        N788   1.154       .  T
C791        C792   1.464       .  A
C791        C796   1.364       .  A
C792        C793   1.462       .  A
C792        C797   1.435       .  S
C793        C794   1.415       .  A
C793        C800   1.432       .  S
C794        C795   1.443       .  A
C795        C796   1.450       .  A
C795        C798   1.363       .  S
C796        C799   1.479       .  S
C797        N804   1.156       .  T
C798        N803   1.145   1_556  T
C799        N801   1.154       .  T
C800        N802   1.150       .  T
C805        C806   1.440       .  A
C805        C810   1.445       .  A
C806        C807   1.491       .  A
C806        C811   1.421       .  S
C807        C808   1.458       .  A
C807        C814   1.431       .  S
C808        C809   1.427       .  A
C809        C810   1.468       .  A
C809        C812   1.441       .  S
C810        C813   1.413       .  S
C811        N818   1.156       .  T
C812        N817   1.155       .  T
C813        N815   1.145       .  T
C814        N816   1.158       .  T
C819        C820   1.396       .  A
C819        C824   1.429       .  A
C820        C821   1.415       .  A
C820        C825   1.448       .  S
C821        C822   1.434       .  A
C821        C828   1.426       .  S
C822        C823   1.417       .  A
C823        C824   1.445       .  A
C823        C826   1.430       .  S
C824        C827   1.442       .  S
C825        N832   1.155       .  T
C826        N831   1.150       .  T
C827        N829   1.157       .  T
C828        N830   1.151       .  T
C833        C834   1.447       .  A
C833        C838   1.360       .  A
C834        C835   1.481       .  A
C834        C839   1.402       .  S
C835        C836   1.434       .  A
C835        C842   1.424       .  S
C836        C837   1.474       .  A
C837        C838   1.460       .  A
C837        C840   1.448       .  S
C838        C841   1.409       .  S
C839        N846   1.149       .  T
C840        N845   1.159       .  T
C841        N843   1.147       .  T
C842        N844   1.160       .  T
C847        C848   1.444       .  A
C847        C852   1.414       .  A
C848        C849   1.445       .  A
C848        C853   1.446       .  S
C849        C850   1.413       .  A
C849        C856   1.394       .  S
C850        C851   1.463       .  A
C851        C852   1.471       .  A
C851        C854   1.438       .  S
C852        C855   1.427       .  S
C853        N860   1.157       .  T
C854        N859   1.154       .  T
C855        N857   1.154       .  T
C856        N858   1.146       .  T
C861        C862   1.402       .  A
C861        C866   1.440       .  A
C862        C863   1.404       .  A
C862        C867   1.460       .  S
C863        C864   1.441       .  A
C863        C870   1.414       .  S
C864        C865   1.418       .  A
C865        C866   1.466       .  A
C865        C868   1.445       .  S
C866        C869   1.438       .  S
C867        N874   1.158       .  T
C868        N873   1.158       .  T
C869        N871   1.158       .  T
C870        N872   1.147       .  T
C875        C876   1.392       .  A
C875        C880   1.492       .  A
C876        C877   1.469       .  A
C876        C881   1.424       .  S
C877        C878   1.466       .  A
C877        C884   1.428       .  S
C878        C879   1.400       .  A
C879        C880   1.470       .  A
C879        C882   1.452       .  S
C880        C883   1.419       .  S
C881        N888   1.156       .  T
C882        N887   1.160       .  T
C883        N885   1.158       .  T
C884        N886   1.151       .  T
C889        C890   1.433       .  A
C889        C894   1.407       .  A
C890        C891   1.487       .  A
C890        C895   1.413       .  S
C891        C892   1.470       .  A
C891        C898   1.427       .  S
C892        C893   1.419       .  A
C893        C894   1.410       .  A
C893        C896   1.439       .  S
C894        C897   1.404       .  S
C895        N902   1.146       .  T
C896        N901   1.160       .  T
C897        N899   1.134       .  T
C898        N900   1.156       .  T
C903        C904   1.354       .  A
C903        C908   1.442       .  A
C904        C905   1.425       .  A
C904        C909   1.437       .  S
C905        C906   1.472       .  A
C905        C912   1.406       .  S
C906        C907   1.437       .  A
C907        C908   1.495       .  A
C907        C910   1.434       .  S
C908        C911   1.422       .  S
C909        N916   1.147       .  T
C910        N915   1.157       .  T
C911        N913   1.154       .  T
C912        N914   1.156   1_565  T
C917        C918   1.360       .  A
C917        C922   1.450       .  A
C918        C919   1.437       .  A
C918        C923   1.417       .  S
C919        C920   1.470       .  A
C919        C926   1.396       .  S
C920        C921   1.401       .  A
C921        C922   1.457       .  A
C921        C924   1.441       .  S
C922        C925   1.380       .  S
C923        N930   1.148       .  T
C924        N929   1.156       .  T
C925        N927   1.127   1_565  T
C926        N928   1.148       .  T
C931        C932   1.396       .  A
C931        C936   1.445       .  A
C932        C933   1.387       .  A
C932        C937   1.450       .  S
C933        C934   1.410       .  A
C933        C940   1.359       .  S
C934        C935   1.456       .  A
C935        C936   1.486       .  A
C935        C938   1.415       .  S
C936        C939   1.442       .  S
C937        N944   1.157       .  T
C938        N943   1.147       .  T
C939        N941   1.157       .  T
C940        N942   1.119       .  T
C945        C946   1.535       .  A
C945        C950   1.406       .  A
C946        C947   1.441       .  A
C946        C951   1.460       .  S
C947        C948   1.390       .  A
C947        C954   1.461       .  S
C948        C949   1.446       .  A
C949        C950   1.471       .  A
C949        C952   1.437       .  S
C950        C953   1.428       .  S
C951        N958   1.164       .  T
C952        N957   1.154       .  T
C953        N955   1.151       .  T
C954        N956   1.162       .  T
C959        C960   1.465       .  A
C959        C964   1.452       .  A
C960        C961   1.471       .  A
C960        C965   1.438       .  S
C961        C962   1.433       .  A
C961        C968   1.454       .  S
C962        C963   1.392       .  A
C963        C964   1.432       .  A
C963        C966   1.424       .  S
C964        C967   1.428       .  S
C965        N972   1.156       .  T
C966        N971   1.147   1_565  T
C967        N969   1.146       .  T
C968        N970   1.161       .  T
C973        C974   1.425       .  A
C973        C978   1.408       .  A
C974        C975   1.425       .  A
C974        C979   1.437       .  S
C975        C976   1.412       .  A
C975        C982   1.440       .  S
C976        C977   1.412       .  A
C977        C978   1.434       .  A
C977        C980   1.443       .  S
C978        C981   1.432       .  S
C979        N986   1.155       .  T
C980        N985   1.155       .  T
C981        N983   1.149       .  T
C982        N984   1.158       .  T
C987        C988   1.399       .  A
C987        C992   1.450       .  A
C988        C989   1.414       .  A
C988        C993   1.428       .  S
C989        C990   1.434       .  A
C989        C996   1.416       .  S
C990        C991   1.432       .  A
C991        C992   1.472       .  A
C991        C994   1.435       .  S
C992        C995   1.416       .  S
C993       N1000   1.158       .  T
C994        N999   1.159       .  T
C995        N997   1.149       .  T
C996        N998   1.150       .  T
C1001      C1002   1.404       .  A
C1001      C1006   1.461       .  A
C1002      C1003   1.459       .  A
C1002      C1007   1.406       .  S
C1003      C1004   1.463       .  A
C1003      C1010   1.376       .  S
C1004      C1005   1.380       .  A
C1005      C1006   1.467       .  A
C1005      C1008   1.406       .  S
C1006      C1009   1.451       .  S
C1007      N1014   1.144       .  T
C1008      N1013   1.143       .  T
C1009      N1011   1.157       .  T
C1010      N1012   1.136       .  T
C1015      C1016   1.423       .  A
C1015      C1020   1.424       .  A
C1016      C1017   1.440       .  A
C1016      C1021   1.445       .  S
C1017      C1018   1.416       .  A
C1017      C1024   1.451       .  S
C1018      C1019   1.406       .  A
C1019      C1020   1.425       .  A
C1019      C1022   1.438       .  S
C1020      C1023   1.444       .  S
C1021      N1028   1.157       .  T
C1022      N1027   1.152       .  T
C1023      N1025   1.158       .  T
C1024      N1026   1.158       .  T
C1029      C1030   1.416       .  A
C1029      C1034   1.436       .  A
C1030      C1031   1.444       .  A
C1030      C1035   1.418       .  S
C1031      C1032   1.444       .  A
C1031      C1038   1.440       .  S
C1032      C1033   1.406       .  A
C1033      C1034   1.439       .  A
C1033      C1036   1.407       .  S
C1034      C1037   1.413       .  S
C1035      N1042   1.156       .  T
C1036      N1041   1.145       .  T
C1037      N1039   1.153       .  T
C1038      N1040   1.154   1_565  T
C1043      C1044   1.461       .  A
C1043      C1048   1.424       .  A
C1044      C1045   1.446       .  A
C1044      C1049   1.394       .  S
C1045      C1046   1.380       .  A
C1045      C1052   1.439       .  S
C1046      C1047   1.448       .  A
C1047      C1048   1.469       .  A
C1047      C1050   1.436       .  S
C1048      C1051   1.417       .  S
C1049      N1056   1.146   1_565  T
C1050      N1055   1.157       .  T
C1051      N1053   1.153       .  T
C1052      N1054   1.152       .  T
C1057      C1058   1.400       .  A
C1057      C1062   1.465       .  A
C1058      C1059   1.377       .  A
C1058      C1063   1.393       .  S
C1059      C1060   1.358       .  A
C1059      C1066   1.436       .  S
C1060      C1061   1.453       .  A
C1061      C1062   1.484       .  A
C1061      C1064   1.441       .  S
C1062      C1065   1.440       .  S
C1063      N1070   1.142       .  T
C1064      N1069   1.158       .  T
C1065      N1067   1.158       .  T
C1066      N1068   1.157       .  T
C1071      C1072   1.466       .  A
C1071      C1076   1.415       .  A
C1072      C1073   1.407       .  A
C1072      C1077   1.410   1_655  S
C1073      C1074   1.362       .  A
C1073      C1080   1.436       .  S
C1074      C1075   1.492       .  A
C1075      C1076   1.481       .  A
C1075      C1078   1.457       .  S
C1076      C1079   1.430       .  S
C1077      N1084   1.158       .  T
C1078      N1083   1.156       .  T
C1079      N1081   1.152       .  T
C1080      N1082   1.160       .  T
C1085      C1086   1.329       .  A
C1085      C1090   1.450       .  A
C1086      C1087   1.479       .  A
C1086      C1091   1.439   1_655  S
C1087      C1088   1.346       .  A
C1087      C1094   1.446       .  S
C1088      C1089   1.452       .  A
C1089      C1090   1.524       .  A
C1089      C1092   1.426       .  S
C1090      C1093   1.433       .  S
C1091      N1098   1.147       .  T
C1092      N1097   1.151       .  T
C1093      N1095   1.156       .  T
C1094      N1096   1.152   1_655  T
C1099      C1100   1.417       .  A
C1099      C1104   1.389       .  A
C1100      C1101   1.460       .  A
C1100      C1105   1.441       .  S
C1101      C1102   1.427       .  A
C1101      C1108   1.444       .  S
C1102      C1103   1.463       .  A
C1103      C1104   1.382       .  A
C1103      C1106   1.416       .  S
C1104      C1107   1.451       .  S
C1105      N1112   1.155       .  T
C1106      N1111   1.156       .  T
C1107      N1109   1.156       .  T
C1108      N1110   1.158       .  T
C1113      C1114   1.458       .  A
C1113      C1118   1.437       .  A
C1114      C1115   1.458       .  A
C1114      C1119   1.397       .  S
C1115      C1116   1.385       .  A
C1115      C1122   1.473       .  S
C1116      C1117   1.466       .  A
C1117      C1118   1.476       .  A
C1117      C1120   1.426       .  S
C1118      C1121   1.441       .  S
C1119      N1126   1.150       .  T
C1120      N1125   1.152       .  T
C1121      N1123   1.154       .  T
C1122      N1124   1.161   1_655  T
C1127      C1128   1.421       .  A
C1127      C1132   1.420       .  A
C1128      C1129   1.426       .  A
C1128      C1133   1.412       .  S
C1129      C1130   1.402       .  A
C1129      C1136   1.394       .  S
C1130      C1131   1.500       .  A
C1131      C1132   1.528       .  A
C1131      C1134   1.415       .  S
C1132      C1135   1.401       .  S
C1133      N1140   1.139       .  T
C1134      N1139   1.154       .  T
C1135      N1137   1.145       .  T
C1136      N1138   1.141       .  T
C1141      C1142   1.486       .  A
C1141      C1146   1.378       .  A
C1142      C1143   1.521       .  A
C1142      C1147   1.430       .  S
C1143      C1144   1.504       .  A
C1143      C1150   1.440       .  S
C1144      C1145   1.357       .  A
C1145      C1146   1.391       .  A
C1145      C1148   1.447       .  S
C1146      C1149   1.460       .  S
C1147      N1154   1.154       .  T
C1148      N1153   1.149       .  T
C1149      N1151   1.157       .  T
C1150      N1152   1.158       .  T
C1155      C1156   1.418       .  A
C1155      C1160   1.439       .  A
C1156      C1157   1.482       .  A
C1156      C1161   1.425       .  S
C1157      C1158   1.459       .  A
C1157      C1164   1.423       .  S
C1158      C1159   1.400       .  A
C1159      C1160   1.423       .  A
C1159      C1162   1.455       .  S
C1160      C1163   1.389       .  S
C1161      N1168   1.155       .  T
C1162      N1167   1.158   1_655  T
C1163      N1165   1.142       .  T
C1164      N1166   1.153       .  T
C1169      C1170   1.408       .  A
C1169      C1174   1.448       .  A
C1170      C1171   1.421       .  A
C1170      C1175   1.420       .  S
C1171      C1172   1.434       .  A
C1171      C1178   1.419   1_655  S
C1172      C1173   1.450       .  A
C1173      C1174   1.514       .  A
C1173      C1176   1.438       .  S
C1174      C1177   1.453       .  S
C1175      N1182   1.146   1_655  T
C1176      N1181   1.155       .  T
C1177      N1179   1.158       .  T
C1178      N1180   1.144       .  T
C1183      C1184   1.442       .  A
C1183      C1188   1.459       .  A
C1184      C1185   1.375       .  A
C1184      C1189   1.408       .  S
C1185      C1186   1.387       .  A
C1185      C1192   1.447       .  S
C1186      C1187   1.423       .  A
C1187      C1188   1.473       .  A
C1187      C1190   1.450       .  S
C1188      C1191   1.430       .  S
C1189      N1196   1.149       .  T
C1190      N1195   1.158       .  T
C1191      N1193   1.155       .  T
C1192      N1194   1.157       .  T
C1197      C1198   1.420       .  A
C1197      C1202   1.416       .  A
C1198      C1199   1.475       .  A
C1198      C1203   1.433       .  S
C1199      C1200   1.404       .  A
C1199      C1206   1.417       .  S
C1200      C1201   1.439       .  A
C1201      C1202   1.455       .  A
C1201      C1204   1.311       .  S
C1202      C1205   1.419       .  S
C1203      N1210   1.149       .  T
C1204      N1209   1.111   1_655  T
C1205      N1207   1.150       .  T
C1206      N1208   1.150       .  T
C1211      C1212   1.477       .  A
C1211      C1216   1.430       .  A
C1212      C1213   1.489       .  A
C1212      C1217   1.450       .  S
C1213      C1214   1.433       .  A
C1213      C1220   1.432       .  S
C1214      C1215   1.409       .  A
C1215      C1216   1.416       .  A
C1215      C1218   1.440       .  S
C1216      C1219   1.395       .  S
C1217      N1224   1.158       .  T
C1218      N1223   1.157   1_655  T
C1219      N1221   1.140   1_655  T
C1220      N1222   1.151       .  T
