geometry optimzed in LAMMPS
_audit_creation_date              2020-12-01 
_audit_creation_method            'lammps2cif' 
_symmetry_space_group_name_H-M    'P1' 
_symmetry_Int_Tables_number       1 
_symmetry_cell_setting            triclinic 
loop_ 
_symmetry_equiv_pos_as_xyz 
  x,y,z 
_cell_length_a                    41.69744638 
_cell_length_b                    42.088471128836495 
_cell_length_c                    47.61527023321687 
_cell_angle_alpha                 90.39110503107389 
_cell_angle_beta                  89.34558826988444 
_cell_angle_gamma                 120.02807885799622 
loop_ 
_atom_site_label 
_atom_site_type_symbol 
_atom_site_fract_x 
_atom_site_fract_y 
_atom_site_fract_z 
_atom_site_charge 
C1          C  0.32305996  0.16788516  0.88471782    -0.02400
C2          C  0.34495250  0.17041051  0.66764158    -0.02400
C3          C  0.15694776  0.33354112  0.16704733    -0.02400
C4          C  0.17216098  0.32749923  0.38293739    -0.02400
Zn5        Zn  0.49115048  0.00301263  0.06738678     1.49700
Zn6        Zn  0.43904815  0.47526123  0.00940917     1.49400
Zn7        Zn  0.01610141  0.05130553  0.00958956     1.49100
Zn8        Zn  0.01725146  0.47692677  0.01093331     1.49500
O9          O  0.48922668  0.00139055  0.02596784    -1.84100
O10         O  0.43880694  0.47773069  0.08007550    -0.74700
O11         O  0.42653091  0.00720123  0.98821361    -0.74500
O12         O  0.03360822  0.08796378  0.04109175    -0.74000
O13         O  0.40339752  0.45964865  0.04206220    -0.74700
O14         O  0.01925947  0.05477848  0.08030500    -0.74300
O15         O  0.47966090  0.05988584  0.98723529    -0.74900
O16         O  0.05694121  0.00626815  0.98576059    -0.74300
O17         O  0.42851459  0.43016600  0.98678342    -0.75100
O18         O  0.05961852  0.06018555  0.98477558    -0.74400
O19         O  0.48201897  0.43097982  0.98772737    -0.74900
O20         O  0.03645614  0.46039824  0.04259215    -0.74800
O21         O  0.01906783  0.47722740  0.08142238    -0.74600
C22         C  0.40699288  0.46267416  0.06863137     0.77200
C23         C  0.44604007  0.04034358  0.98004688     0.77700
C24         C  0.03290870  0.08557087  0.06774793     0.76600
C25         C  0.07173156  0.03907548  0.97694977     0.77000
C26         C  0.44848759  0.41613782  0.98017503     0.78100
C27         C  0.03505036  0.46172136  0.06924721     0.77200
Zn28       Zn  0.03282768  0.47119972  0.54013413     1.49700
Zn29       Zn  0.45860356  0.47337985  0.53736769     1.49400
Zn30       Zn  0.03470452  0.04878631  0.53512861     1.49100
Zn31       Zn  0.50669938  0.99761288  0.48063596     1.49500
O32         O  0.50852422  0.99810767  0.52198758    -1.84100
O33         O  0.50254012  0.43115598  0.56167201    -0.74700
O34         O  0.44655406  0.00667174  0.55929077    -0.74500
O35         O  0.07976548  0.06099470  0.55877274    -0.74000
O36         O  0.44971406  0.43200766  0.56310023    -0.74700
O37         O  0.08173084  0.00922939  0.55857165    -0.74300
O38         O  0.49892459  0.06013989  0.55789030    -0.74900
O39         O  0.03539614  0.04657127  0.46430416    -0.74300
O40         O  0.42094933  0.45299789  0.50614250    -0.75100
O41         O  0.05228338  0.08299676  0.50187394    -0.74400
O42         O  0.45477050  0.47167324  0.46701723    -0.74900
O43         O  0.03230308  0.46721972  0.46966345    -0.74800
O44         O  0.05182830  0.45298958  0.50823715    -0.74600
C45         C  0.46950977  0.41846932  0.57081180     0.77200
C46         C  0.46501227  0.04069609  0.56531868     0.77700
C47         C  0.09517530  0.04267091  0.56586778     0.76600
C48         C  0.05090388  0.07838013  0.47536293     0.77000
C49         C  0.42338221  0.45519651  0.47943646     0.78100
C50         C  0.05014687  0.45391373  0.48157603     0.77200
C51         C  0.35181447  0.43454607  0.42235614    -0.11300
C52         C  0.32157536  0.40207960  0.43260923     0.15200
C53         C  0.32507969  0.38704247  0.45807484     0.02100
C54         C  0.35852064  0.40501282  0.47270783    -0.15700
C55         C  0.38882784  0.43775553  0.46270380    -0.10500
C56         C  0.38510880  0.45276090  0.43722001     0.08800
C57         C  0.28579616  0.38650142  0.41778228     0.09900
S58         S  0.28798114  0.34584223  0.47390139    -0.24800
H59         H  0.36089098  0.39318547  0.49217841     0.20100
S60         S  0.42061378  0.49622898  0.42349924    -0.30500
H61         H  0.34891621  0.44655502  0.40316632     0.10400
C62         C  0.26035047  0.39789456  0.42456258     0.03600
C63         C  0.22514523  0.38003187  0.41250924    -0.12800
C64         C  0.21358731  0.35001725  0.39355740    -0.08500
C65         C  0.24069583  0.33971215  0.38631795     0.07100
C66         C  0.27617823  0.35830688  0.39826971    -0.13600
S67         S  0.27195432  0.43388143  0.45020521    -0.30500
H68         H  0.20600827  0.38803281  0.42041010     0.11300
S69         S  0.23109473  0.30257029  0.36220609    -0.27600
H70         H  0.29623861  0.34987413  0.39335975     0.08600
H71         H  0.43030955  0.51371572  0.44985096     0.27000
H72         H  0.23885438  0.43498375  0.44868469     0.21800
H73         H  0.26753356  0.30919037  0.35927569     0.27100
H74         H  0.26277580  0.33325568  0.45171687     0.16000
C75         C  0.10079268  0.34865032  0.42236471    -0.11300
C76         C  0.11577822  0.38553652  0.41553869     0.15200
C77         C  0.14508926  0.40169739  0.39607290     0.02100
C78         C  0.16027536  0.38110895  0.38526778    -0.15700
C79         C  0.14829646  0.34459535  0.39407536    -0.10500
C80         C  0.11549514  0.32747628  0.41163055     0.08800
C81         C  0.10086393  0.40630335  0.43041101     0.09900
S82         S  0.16560660  0.44891644  0.38513494    -0.24800
H83         H  0.18368722  0.39476451  0.37100823     0.20100
S84         S  0.08737519  0.27880211  0.41891601    -0.30500
H85         H  0.07677421  0.33623356  0.43617152     0.10400
C86         C  0.06795821  0.40481488  0.42183865     0.03600
C87         C  0.05246416  0.42135700  0.43857597    -0.12800
C88         C  0.06911678  0.43911475  0.46387928    -0.08500
C89         C  0.10308007  0.44180567  0.47168287     0.07100
C90         C  0.11823511  0.42498811  0.45506977    -0.13600
S91         S  0.04554969  0.38135894  0.38981270    -0.30500
H92         H  0.02671714  0.41955220  0.43233849     0.11300
S93         S  0.12908295  0.46704846  0.50201947    -0.27600
H94         H  0.14368730  0.42621626  0.46150501     0.08600
H95         H  0.07196977  0.28191699  0.44451807     0.27000
H96         H  0.01641361  0.38908383  0.39109026     0.21800
H97         H  0.12172297  0.49599341  0.49875157     0.27100
H98         H  0.13439623  0.45265062  0.39015044     0.16000
C99         C  0.14422685  0.24373375  0.43251715    -0.11300
C100        C  0.12622204  0.21409755  0.41418567     0.15200
C101        C  0.12647230  0.22080590  0.38526799     0.02100
C102        C  0.14377033  0.25704500  0.37557280    -0.15700
C103        C  0.15789850  0.28758514  0.39411717    -0.10500
C104        C  0.15972350  0.28004801  0.42327520     0.08800
C105        C  0.10518609  0.17708755  0.42680307     0.09900
S106        S  0.10430130  0.18468385  0.35952242    -0.24800
H107        H  0.14501913  0.26061801  0.35314160     0.20100
S108        S  0.17594376  0.31477028  0.45046868    -0.30500
H109        H  0.14386607  0.23812488  0.45472579     0.10400
C110        C  0.11799146  0.15181167  0.42573686     0.03600
C111        C  0.09866896  0.11867693  0.44070297    -0.12800
C112        C  0.06739727  0.11093446  0.45712400    -0.08500
C113        C  0.05416879  0.13590633  0.45751877     0.07100
C114        C  0.07321858  0.16866578  0.44246970    -0.13600
S115        S  0.15995839  0.16271021  0.40670689    -0.30500
H116        H  0.10876506  0.09945516  0.44062116     0.11300
S117        S  0.01343850  0.12773658  0.47711221    -0.27600
H118        H  0.06342698  0.18815476  0.44334127     0.08600
H119        H  0.18109796  0.29441514  0.47145239     0.27000
H120        H  0.16062207  0.13066100  0.41381239     0.21800
H121        H  0.99466164  0.08926505  0.47474335     0.27100
H122        H  0.07831317  0.15755843  0.37758066     0.16000
C123        C  0.15680443  0.35867568  0.24691954    -0.11300
C124        C  0.16928916  0.33676847  0.25903933     0.15200
C125        C  0.18099240  0.31746110  0.24157521     0.02100
C126        C  0.17804216  0.31898200  0.21249807    -0.15700
C127        C  0.16125166  0.33729345  0.19969731    -0.10500
C128        C  0.15434363  0.36086769  0.21763890     0.08800
C129        C  0.17064681  0.33554342  0.29001399     0.09900
S130        S  0.19867096  0.28922959  0.25496557    -0.24800
H131        H  0.18659147  0.30318658  0.19977900     0.20100
S132        S  0.14896629  0.39853631  0.20525934    -0.30500
H133        H  0.15045856  0.37539199  0.26071256     0.10400
C134        C  0.20374508  0.35572240  0.30474532     0.03600
C135        C  0.20337955  0.35356952  0.33412452    -0.12800
C136        C  0.17078570  0.32992410  0.34981283    -0.08500
C137        C  0.13695518  0.31202755  0.33420334     0.07100
C138        C  0.13765007  0.31473849  0.30483517    -0.13600
S139        S  0.24642197  0.38532556  0.28611494    -0.30500
H140        H  0.22907779  0.37141223  0.34449813     0.11300
S141        S  0.09182724  0.28593685  0.35043795    -0.27600
H142        H  0.11211650  0.30071498  0.29311950     0.08600
H143        H  0.13756428  0.40703254  0.23074488     0.27000
H144        H  0.27018888  0.39399938  0.30918028     0.21800
H145        H  0.07245225  0.26612084  0.32652154     0.27100
H146        H  0.17818973  0.27921811  0.28020642     0.16000
C147        C  0.04969038  0.17688732  0.09603628    -0.11300
C148        C  0.08172786  0.18812471  0.11192849     0.15200
C149        C  0.09636398  0.16437834  0.11439037     0.02100
C150        C  0.07886807  0.13017616  0.10095591    -0.15700
C151        C  0.04761337  0.11957875  0.08431922    -0.10500
C152        C  0.03256596  0.14299545  0.08218962     0.08800
C153        C  0.09875018  0.22431842  0.12625037     0.09900
S154        S  0.13831390  0.17711048  0.13316974    -0.24800
H155        H  0.09068577  0.11243650  0.10244357     0.20100
S156        S  0.99138932  0.13102377  0.06236976    -0.30500
H157        H  0.03795971  0.19468918  0.09443604     0.10400
C158        C  0.11580290  0.25722955  0.11112248     0.03600
C159        C  0.13252223  0.29065237  0.12561314    -0.12800
C160        C  0.13347981  0.29315704  0.15547831    -0.08500
C161        C  0.11329637  0.25872188  0.17053803     0.07100
C162        C  0.09730808  0.22552596  0.15548756    -0.13600
S163        S  0.11864993  0.25686599  0.07322568    -0.30500
H164        H  0.14706292  0.31545123  0.11330442     0.11300
S165        S  0.10482724  0.25056122  0.20798464    -0.27600
H166        H  0.08303748  0.19973545  0.16680377     0.08600
H167        H  0.97445224  0.09290064  0.06644505     0.27000
H168        H  0.13370149  0.29480772  0.06921450     0.21800
H169        H  0.10278818  0.28122211  0.21636253     0.27100
H170        H  0.15678405  0.21312721  0.12272646     0.16000
C171        C  0.25245552  0.35474822  0.13281072    -0.11300
C172        C  0.27231845  0.39292931  0.13501002     0.15200
C173        C  0.25723437  0.41069079  0.15080370     0.02100
C174        C  0.22142194  0.39020349  0.16193284    -0.15700
C175        C  0.19870577  0.35200425  0.15686991    -0.10500
C176        C  0.21686472  0.33379834  0.14457061     0.08800
C177        C  0.30804998  0.41325531  0.11965987     0.09900
S178        S  0.28180275  0.45955889  0.15684873    -0.24800
H179        H  0.21021858  0.40482162  0.17330848     0.20100
S180        S  0.19989778  0.28502170  0.14716055    -0.30500
H181        H  0.26554786  0.34129137  0.12221472     0.10400
C182        C  0.33968624  0.41190461  0.12794944     0.03600
C183        C  0.37207639  0.42938836  0.11145028    -0.12800
C184        C  0.37332974  0.44780988  0.08659453    -0.08500
C185        C  0.34180899  0.45007981  0.07891709     0.07100
C186        C  0.30956300  0.43256397  0.09537121    -0.13600
S187        S  0.33876223  0.38792625  0.15953217    -0.30500
H188        H  0.39620237  0.42782644  0.11749341     0.11300
S189        S  0.34104675  0.47551419  0.04883003    -0.27600
H190        H  0.28528412  0.43377598  0.08910617     0.08600
H191        H  0.22304195  0.28265407  0.12654377     0.27000
H192        H  0.37440834  0.39248264  0.15636227     0.21800
H193        H  0.37795411  0.50405027  0.05153472     0.27100
H194        H  0.31760588  0.46424141  0.15534951     0.16000
C195        C  0.08154458  0.43586796  0.12671610    -0.11300
C196        C  0.08230339  0.40610369  0.11393297     0.15200
C197        C  0.06660916  0.39429301  0.08714449     0.02100
C198        C  0.05172229  0.41311422  0.07336389    -0.15700
C199        C  0.05140986  0.44344417  0.08571681    -0.10100
C200        C  0.06662628  0.45485467  0.11286890     0.08800
C201        C  0.10175953  0.38932707  0.12799788     0.09900
S202        S  0.06553817  0.35595043  0.06904190    -0.24800
H203        H  0.03990721  0.40362286  0.05274609     0.20100
S204        S  0.07003194  0.49454750  0.13029049    -0.30500
H205        H  0.09388047  0.44518067  0.14720723     0.10400
C206        C  0.13785325  0.39856142  0.12013015     0.03600
C207        C  0.15426994  0.37994397  0.13213606    -0.12800
C208        C  0.13687394  0.35344884  0.15386469    -0.08500
C209        C  0.09928876  0.34341291  0.16046649     0.07100
C210        C  0.08281955  0.36182276  0.14787632    -0.13600
S211        S  0.16293597  0.43363394  0.09403983    -0.30500
H212        H  0.18028850  0.38545963  0.12304823     0.11300
S213        S  0.07077767  0.30718488  0.18457061    -0.27600
H214        H  0.05443610  0.35406994  0.15290095     0.08600
H215        H  0.08116470  0.51651177  0.10600402     0.27000
H216        H  0.19782101  0.43703295  0.09853335     0.21800
H217        H  0.04334609  0.31682514  0.18917413     0.27100
H218        H  0.06307425  0.33571825  0.09311426     0.16000
C219        C  0.39691641  0.11367216  0.65572868    -0.11300
C220        C  0.39803795  0.11316928  0.62640288     0.15200
C221        C  0.38115672  0.12934686  0.61136184     0.02100
C222        C  0.36363871  0.14544429  0.62581450    -0.15700
C223        C  0.36369401  0.14841704  0.65560629    -0.10500
C224        C  0.37996182  0.13034158  0.67066408     0.08800
C225        C  0.41539982  0.09402774  0.61197567     0.09900
S226        S  0.38209136  0.13165243  0.57351321    -0.24800
H227        H  0.35142017  0.15796560  0.61328292     0.20100
S228        S  0.38180466  0.12597799  0.70826657    -0.30500
H229        H  0.40920367  0.10031777  0.66721193     0.10400
C230        C  0.45388143  0.10755820  0.61287631     0.03600
C231        C  0.46917772  0.08951335  0.59764939    -0.12800
C232        C  0.44691723  0.05820571  0.58128102    -0.08500
C233        C  0.40820203  0.04485143  0.58052269     0.07100
C234        C  0.39299132  0.06245482  0.59619442    -0.13600
S235        S  0.48376601  0.14868506  0.63246711    -0.30500
H236        H  0.49873585  0.09999932  0.59840832     0.11300
S237        S  0.37800879  0.50520511  0.56195186    -0.27600
H238        H  0.36342696  0.05215440  0.59534671     0.08600
H239        H  0.34387066  0.11033104  0.71365208     0.27000
H240        H  0.01441871  0.14514065  0.62914150     0.21800
H241        H  0.39896110  0.51728955  0.53692402     0.27100
H242        H  0.41709611  0.13477351  0.57006957     0.16000
C243        C  0.37542306  0.27399570  0.65502455    -0.11300
C244        C  0.40463427  0.28480140  0.63577875     0.15200
C245        C  0.41755778  0.26049012  0.62947737     0.02100
C246        C  0.39996715  0.22549241  0.64127506    -0.15700
C247        C  0.36745312  0.21204493  0.65822190    -0.10500
C248        C  0.35679308  0.23840181  0.66639892     0.08800
C249        C  0.42007538  0.32082506  0.62152463     0.09900
S250        S  0.45580628  0.27187291  0.60566905    -0.24800
H251        H  0.41261436  0.20914068  0.63664602     0.20100
S252        S  0.31743244  0.22700311  0.68916599    -0.30500
H253        H  0.36613297  0.29321072  0.66015278     0.10400
C254        C  0.39884180  0.32735710  0.60201101     0.03600
C255        C  0.41541656  0.36014366  0.58666161    -0.12800
C256        C  0.45298395  0.38649065  0.59003051    -0.08500
C257        C  0.47369964  0.38063980  0.61064001     0.07100
C258        C  0.45709061  0.34787299  0.62601416    -0.13600
S259        S  0.35131835  0.29288215  0.59513162    -0.30500
H260        H  0.39941527  0.36456728  0.57101798     0.11300
S261        S  0.01688688  0.40793816  0.62174231    -0.27600
H262        H  0.47327372  0.34312232  0.64132128     0.08600
H263        H  0.32604826  0.26317471  0.69522736     0.27000
H264        H  0.34411548  0.31304396  0.57525936     0.21800
H265        H  0.01212167  0.43861296  0.61919878     0.27100
H266        H  0.44680954  0.29144066  0.58652557     0.16000
C267        C  0.17128912  0.10459039  0.61695956    -0.11300
C268        C  0.19955704  0.09718387  0.60947776     0.15200
C269        C  0.19284069  0.07105100  0.58819684     0.02100
C270        C  0.15820515  0.05284883  0.57514949    -0.15700
C271        C  0.13008898  0.06075722  0.58218064    -0.10500
C272        C  0.13677086  0.08670190  0.60368527     0.08800
C273        C  0.23530394  0.11619094  0.62477064     0.09900
S274        S  0.22765259  0.06048259  0.57615102    -0.24800
H275        H  0.15364344  0.03324006  0.55860842     0.20100
S276        S  0.10201745  0.09710489  0.61603550    -0.30500
H277        H  0.17602645  0.12414594  0.63357967     0.10400
C278        C  0.25995422  0.15386461  0.62160268     0.03600
C279        C  0.29428277  0.17025788  0.63512206    -0.12800
C280        C  0.30494260  0.15074705  0.65363071    -0.08500
C281        C  0.27949679  0.11189409  0.65569063     0.07100
C282        C  0.24529020  0.09575936  0.64180438    -0.13600
S283        S  0.24887599  0.18108575  0.59876595    -0.30500
H284        H  0.31297423  0.19832999  0.62962036     0.11300
S285        S  0.28930710  0.08123414  0.67541798    -0.27600
H286        H  0.22604091  0.06664148  0.64386276     0.08600
H287        H  0.07223533  0.06100151  0.61335070     0.27000
H288        H  0.27623576  0.21559257  0.60871366     0.21800
H289        H  0.25923254  0.04774792  0.66643529     0.27100
H290        H  0.25822247  0.09564385  0.58078400     0.16000
C291        C  0.37083480  0.19394083  0.74717426    -0.11300
C292        C  0.33687438  0.17188771  0.76060478     0.15200
C293        C  0.30535539  0.15083163  0.74421772     0.02100
C294        C  0.30852205  0.15195245  0.71495661    -0.15700
C295        C  0.34316962  0.17120727  0.70062427    -0.10500
C296        C  0.37478779  0.19381198  0.71791997     0.08800
C297        C  0.33500361  0.17233614  0.79172445     0.09900
S298        S  0.26001444  0.12159472  0.75935328    -0.24800
H299        H  0.28284756  0.13730230  0.70386620     0.20100
S300        S  0.42163560  0.22370098  0.70552958    -0.30500
H301        H  0.39492555  0.21109304  0.75983815     0.10400
C302        C  0.35358519  0.15934326  0.80825254     0.03600
C303        C  0.35096542  0.16017429  0.83752975    -0.12800
C304        C  0.32717641  0.17043615  0.85156315    -0.08500
C305        C  0.31058105  0.18593667  0.83421593     0.07100
C306        C  0.31459288  0.18633766  0.80485863    -0.13600
S307        S  0.37985126  0.14038929  0.79212737    -0.30500
H308        H  0.36811911  0.15257586  0.84907598     0.11300
S309        S  0.28367892  0.20528044  0.84822827    -0.27600
H310        H  0.30130904  0.19723522  0.79176827     0.08600
H311        H  0.42239614  0.19981417  0.68539853     0.27000
H312        H  0.38630694  0.12626415  0.81676780     0.21800
H313        H  0.27896426  0.21992327  0.82318419     0.27100
H314        H  0.27247458  0.11162853  0.78324500     0.16000
C315        C  0.43303744  0.10401407  0.93108020    -0.11300
C316        C  0.39602644  0.09363121  0.93675533     0.15200
C317        C  0.37490681  0.06391916  0.95508390     0.02100
C318        C  0.39140897  0.04577951  0.96765105    -0.15700
C319        C  0.42893702  0.05709362  0.96293322    -0.10500
C320        C  0.44966176  0.08609540  0.94378691     0.08800
C321        C  0.37986066  0.11353834  0.92263093     0.09900
S322        S  0.32722301  0.04866926  0.96413891    -0.24800
H323        H  0.37518158  0.02372627  0.98229160     0.20100
S324        S  0.99601114  0.10213821  0.93249436    -0.30500
H325        H  0.44903575  0.12617286  0.91645622     0.10400
C326        C  0.39196821  0.15051956  0.92851052     0.03600
C327        C  0.37452800  0.16766641  0.91575066    -0.12800
C328        C  0.34446041  0.14892435  0.89694501    -0.08500
C329        C  0.33309078  0.11119905  0.89100677     0.07100
C330        C  0.35118100  0.09459732  0.90365591    -0.13600
S331        S  0.42797336  0.17537299  0.95400066    -0.30500
H332        H  0.38306080  0.19505541  0.92271427     0.11300
S333        S  0.29610758  0.08314816  0.86691173    -0.27600
H334        H  0.34264323  0.06622401  0.89913406     0.08600
H335        H  0.99076555  0.06641510  0.93257272     0.27000
H336        H  0.43051763  0.20975641  0.95072327     0.21800
H337        H  0.29648470  0.05013437  0.86996142     0.27100
H338        H  0.33018000  0.08339021  0.96252527     0.16000
C339        C  0.34238158  0.25999018  0.92174926    -0.11300
C340        C  0.37978115  0.28239464  0.91519768     0.15200
C341        C  0.39703593  0.26933672  0.89667893     0.02100
C342        C  0.37708430  0.23331914  0.88670108    -0.15700
C343        C  0.33983882  0.20880440  0.89489609    -0.10500
C344        C  0.32144038  0.22456231  0.91075541     0.08800
C345        C  0.39992440  0.31842256  0.92944196     0.09900
S346        S  0.44469504  0.29686346  0.88556106    -0.24800
H347        H  0.39158544  0.22358626  0.87334602     0.20100
S348        S  0.27178105  0.20405337  0.91627206    -0.30500
H349        H  0.32935495  0.27072434  0.93570228     0.10400
C350        C  0.38945502  0.34524150  0.92611326     0.03600
C351        C  0.40565777  0.37671127  0.94301841    -0.12800
C352        C  0.43262544  0.38232748  0.96290921    -0.08500
C353        C  0.44400510  0.35588825  0.96552917     0.07100
C354        C  0.42726837  0.32415734  0.94888492    -0.13600
S355        S  0.35573416  0.33959041  0.90010495    -0.30500
H356        H  0.39747210  0.39721899  0.94059760     0.11300
S357        S  0.97767078  0.36062078  0.99346864    -0.27600
H358        H  0.43451957  0.30300988  0.95164159     0.08600
H359        H  0.27088286  0.23616919  0.92314790     0.27000
H360        H  0.35705547  0.37321966  0.90499674     0.21800
H361        H  0.97937639  0.32912962  0.98589916     0.27100
H362        H  0.44629608  0.33093483  0.88802813     0.16000
C363        C  0.14883201  0.09564214  0.92431313    -0.11300
C364        C  0.17054744  0.07895687  0.92664096     0.15200
C365        C  0.15804080  0.04751525  0.94351029     0.02100
C366        C  0.12549916  0.03495806  0.95918291    -0.15700
C367        C  0.10431715  0.05248218  0.95795920    -0.10500
C368        C  0.11548174  0.08227588  0.93924061     0.08800
C369        C  0.20851889  0.09822209  0.91503482     0.09900
S370        S  0.18307593  0.02301212  0.94661606    -0.24800
H371        H  0.11717394  0.01166441  0.97294784     0.20100
S372        S  0.08841701  0.10398644  0.93292581    -0.30500
H373        H  0.15835838  0.11973844  0.91121328     0.10400
C374        C  0.21591155  0.10331137  0.88614048     0.03600
C375        C  0.25254411  0.12505229  0.87673375    -0.12800
C376        C  0.28256868  0.14290196  0.89561259    -0.08500
C377        C  0.27431756  0.13493759  0.92498907     0.07100
C378        C  0.23766026  0.11327175  0.93397624    -0.13600
S379        S  0.17873273  0.08101921  0.86121317    -0.30500
H380        H  0.25727952  0.12702800  0.85440519     0.11300
S381        S  0.30841293  0.15575738  0.95246082    -0.27600
H382        H  0.23130946  0.10929893  0.95624493     0.08600
H383        H  0.05446805  0.07074214  0.93249474     0.27000
H384        H  0.20037231  0.09562267  0.83675457     0.21800
H385        H  0.28806915  0.13022017  0.97369759     0.27100
H386        H  0.20001539  0.03252784  0.91991988     0.16000
C387        C  0.32468882  0.67018368  0.88374253    -0.02400
C388        C  0.34433180  0.66894867  0.66644941    -0.02400
C389        C  0.15625161  0.83292252  0.16881561    -0.02400
C390        C  0.17039644  0.82282917  0.38469857    -0.02400
Zn391      Zn  0.49135361  0.50235032  0.06446837     1.49700
Zn392      Zn  0.43800981  0.97497281  0.01260707     1.49400
Zn393      Zn  0.01636954  0.55186061  0.00865697     1.49100
Zn394      Zn  0.01500689  0.97511118  0.01117411     1.49500
O395        O  0.49011483  0.50127247  0.02307558    -1.84100
O396        O  0.43879262  0.97810283  0.08339466    -0.74700
O397        O  0.42813019  0.50773224  0.98499358    -0.74500
O398        O  0.03334012  0.58891970  0.03996310    -0.74000
O399        O  0.40284427  0.95929759  0.04564993    -0.74700
O400        O  0.01878048  0.55599632  0.07933651    -0.74300
O401        O  0.48123297  0.56051819  0.98426695    -0.74900
O402        O  0.05951223  0.50869758  0.98570985    -0.74300
O403        O  0.42784790  0.93001873  0.98975182    -0.75100
O404        O  0.05998094  0.56142522  0.98357333    -0.74400
O405        O  0.48207395  0.93221138  0.98961782    -0.74900
O406        O  0.03436300  0.95782941  0.04224363    -0.74800
O407        O  0.01837177  0.97535630  0.08144498    -0.74600
C408        C  0.40681745  0.96264486  0.07219628     0.77200
C409        C  0.44757962  0.54094915  0.97701257     0.77700
C410        C  0.03231544  0.58670119  0.06665212     0.76600
C411        C  0.07335775  0.54119266  0.97634554     0.77000
C412        C  0.44833161  0.91677863  0.98249071     0.78100
C413        C  0.03376632  0.95947289  0.06889865     0.77200
Zn414      Zn  0.03622423  0.97365884  0.53669493     1.49700
Zn415      Zn  0.45791718  0.97236361  0.53700636     1.49400
Zn416      Zn  0.03063848  0.54618345  0.53760797     1.49100
Zn417      Zn  0.50748726  0.49761647  0.48121397     1.49500
O418        O  0.50920840  0.49843384  0.52254375    -1.84100
O419        O  0.50316316  0.93016043  0.55944780    -0.74700
O420        O  0.44858529  0.50825942  0.55951795    -0.74500
O421        O  0.07696229  0.55976078  0.56020199    -0.74000
O422        O  0.45029596  0.93087926  0.56230218    -0.74700
O423        O  0.07803389  0.50754574  0.56171912    -0.74300
O424        O  0.50083752  0.56169392  0.55750623    -0.74900
O425        O  0.02963778  0.54211056  0.46692717    -0.74300
O426        O  0.42042863  0.95113681  0.50566516    -0.75100
O427        O  0.04591783  0.57946865  0.50389255    -0.74400
O428        O  0.45408554  0.97037084  0.46650391    -0.74900
O429        O  0.03393406  0.96913794  0.46590792    -0.74800
O430        O  0.05412994  0.95532553  0.50441064    -0.74600
C431        C  0.47031900  0.91716939  0.56905593     0.77200
C432        C  0.46707638  0.54232366  0.56522028     0.77700
C433        C  0.09215363  0.54143024  0.56786116     0.76600
C434        C  0.04410885  0.57412771  0.47746743     0.77000
C435        C  0.42277478  0.95316506  0.47894241     0.78100
C436        C  0.05175949  0.95573813  0.47777889     0.77200
C437        C  0.35100545  0.92859151  0.42124540    -0.11300
C438        C  0.32103180  0.89652732  0.43226433     0.15200
C439        C  0.32486961  0.88299913  0.45830851     0.02100
C440        C  0.35820502  0.90206867  0.47292039    -0.15700
C441        C  0.38823889  0.93451231  0.46221369    -0.10500
C442        C  0.38427209  0.94796832  0.43602429     0.08800
C443        C  0.28470010  0.88054300  0.41817744     0.09900
S444        S  0.28764883  0.84276830  0.47487188    -0.24800
H445        H  0.36067253  0.89135830  0.49291264     0.20100
S446        S  0.41920473  0.99104280  0.42132212    -0.30500
H447        H  0.34778658  0.93956124  0.40162327     0.10400
C448        C  0.26016975  0.89319982  0.42459307     0.03600
C449        C  0.22455175  0.87535487  0.41329904    -0.12800
C450        C  0.21192421  0.84459605  0.39500656    -0.08500
C451        C  0.23813395  0.83304969  0.38795017     0.07100
C452        C  0.27394457  0.85140880  0.39937524    -0.13600
S453        S  0.27355345  0.93115909  0.44862623    -0.30500
H454        H  0.20613125  0.88432371  0.42111366     0.11300
S455        S  0.22699357  0.79493666  0.36443406    -0.27600
H456        H  0.29350306  0.84234635  0.39443920     0.08600
H457        H  0.42813024  0.00991746  0.44713149     0.27000
H458        H  0.24333939  0.93643341  0.44366277     0.21800
H459        H  0.26094006  0.79550412  0.36583178     0.27100
H460        H  0.27081831  0.82366475  0.45013564     0.16000
C461        C  0.09977960  0.84675559  0.42224828    -0.11300
C462        C  0.11523949  0.88340107  0.41449431     0.15200
C463        C  0.14514707  0.89870942  0.39554682     0.02100
C464        C  0.16031013  0.87755538  0.38607941    -0.15700
C465        C  0.14748921  0.84111048  0.39553193    -0.10500
C466        C  0.11416281  0.82483580  0.41255028     0.08800
C467        C  0.10076340  0.90516905  0.42833846     0.09900
S468        S  0.16635908  0.94556667  0.38359153    -0.24800
H469        H  0.18410775  0.89061412  0.37211981     0.20100
S470        S  0.08682017  0.77683534  0.42218500    -0.30500
H471        H  0.07622683  0.83537029  0.43651765     0.10400
C472        C  0.06739748  0.90280642  0.41989673     0.03600
C473        C  0.05245311  0.92052294  0.43588101    -0.12800
C474        C  0.07022038  0.94033651  0.46024015    -0.08500
C475        C  0.10474880  0.94410113  0.46768443     0.07100
C476        C  0.11929876  0.92608428  0.45189894    -0.13600
S477        S  0.04383237  0.87687628  0.38897853    -0.30500
H478        H  0.02630956  0.91801351  0.42989619     0.11300
S479        S  0.13217233  0.97218296  0.49654846    -0.27600
H480        H  0.14517442  0.92809802  0.45815192     0.08600
H481        H  0.05331314  0.77597311  0.42835685     0.27000
H482        H  0.01403508  0.88360485  0.39040803     0.21800
H483        H  0.12347571  0.00008176  0.49238968     0.27100
H484        H  0.13488786  0.94932621  0.38684538     0.16000
C485        C  0.14058394  0.73838746  0.43424086    -0.11300
C486        C  0.12001546  0.70911133  0.41614763     0.15200
C487        C  0.11989454  0.71597107  0.38734375     0.02100
C488        C  0.13891686  0.75216035  0.37757767    -0.15700
C489        C  0.15512490  0.78280273  0.39605082    -0.10500
C490        C  0.15794502  0.77474930  0.42499606     0.08800
C491        C  0.09825596  0.67218866  0.42863459     0.09900
S492        S  0.09544848  0.67997815  0.36190999    -0.24800
H493        H  0.13986245  0.75561987  0.35515796     0.20100
S494        S  0.18105520  0.80794363  0.45256245    -0.30500
H495        H  0.14169052  0.73281724  0.45631068     0.10400
C496        C  0.10998728  0.64613548  0.42685097     0.03600
C497        C  0.09039622  0.61308624  0.44177270    -0.12800
C498        C  0.05978131  0.60607073  0.45870406    -0.08500
C499        C  0.04709698  0.63147032  0.45938241     0.07100
C500        C  0.06662491  0.66436524  0.44453765    -0.13600
S501        S  0.15124199  0.65604273  0.40720260    -0.30500
H502        H  0.10003778  0.59349959  0.44145833     0.11300
S503        S  0.00643443  0.62353103  0.47895287    -0.27600
H504        H  0.05747614  0.68434120  0.44571189     0.08600
H505        H  0.16355736  0.82833420  0.44786235     0.27000
H506        H  0.14776557  0.62122993  0.41025364     0.21800
H507        H  0.98760039  0.58504805  0.47660170     0.27100
H508        H  0.06729161  0.65538997  0.38011437     0.16000
C509        C  0.15465747  0.85626011  0.24899334    -0.11300
C510        C  0.16667225  0.83384078  0.26093490     0.15200
C511        C  0.17838512  0.81470200  0.24330407     0.02100
C512        C  0.17596190  0.81690280  0.21424989    -0.15700
C513        C  0.15977686  0.83585272  0.20154577    -0.10500
C514        C  0.15281015  0.85918605  0.21969740     0.08800
C515        C  0.16810974  0.83222951  0.29189348     0.09900
S516        S  0.19553697  0.78591539  0.25646006    -0.24800
H517        H  0.18450007  0.80119909  0.20142808     0.20100
S518        S  0.14803988  0.89730257  0.20757824    -0.30500
H519        H  0.14833313  0.87286257  0.26292601     0.10400
C520        C  0.20148684  0.85125261  0.30645866     0.03600
C521        C  0.20147299  0.84809168  0.33572792    -0.12800
C522        C  0.16878107  0.82506543  0.35154580    -0.08500
C523        C  0.13466967  0.80855795  0.33618050     0.07100
C524        C  0.13515121  0.81169349  0.30683422    -0.13600
S525        S  0.24415046  0.88081413  0.28778929    -0.30500
H526        H  0.22752911  0.86501576  0.34593315     0.11300
S527        S  0.08954765  0.78300195  0.35268711    -0.27600
H528        H  0.10954700  0.79788035  0.29519897     0.08600
H529        H  0.13627090  0.90537438  0.23307454     0.27000
H530        H  0.26818154  0.88770470  0.31041948     0.21800
H531        H  0.06800244  0.78115891  0.32955474     0.27100
H532        H  0.17412690  0.77504463  0.28125995     0.16000
C533        C  0.05106496  0.67927388  0.09381764    -0.11300
C534        C  0.08084266  0.68860463  0.11189993     0.15200
C535        C  0.09315376  0.66319044  0.11605358     0.02100
C536        C  0.07570636  0.62939010  0.10206014    -0.15700
C537        C  0.04693453  0.62076694  0.08319517    -0.10500
C538        C  0.03412339  0.64580854  0.07937654     0.08800
C539        C  0.09786064  0.72455452  0.12664777     0.09900
S540        S  0.13204467  0.67300303  0.13787481    -0.24800
H541        H  0.08574081  0.61034394  0.10495960     0.20100
S542        S  0.99584817  0.63639133  0.05683481    -0.30500
H543        H  0.04092089  0.69823785  0.09098023     0.10400
C544        C  0.11611571  0.75778464  0.11194792     0.03600
C545        C  0.13279591  0.79086940  0.12685159    -0.12800
C546        C  0.13276000  0.79280360  0.15673294    -0.08500
C547        C  0.11159524  0.75813094  0.17132259     0.07100
C548        C  0.09538381  0.72524664  0.15586728    -0.13600
S549        S  0.12076976  0.75832146  0.07412817    -0.30500
H550        H  0.14824441  0.81580383  0.11486261     0.11300
S551        S  0.10234628  0.74922833  0.20863006    -0.27600
H552        H  0.08024973  0.69927607  0.16685711     0.08600
H553        H  0.97650089  0.59816538  0.06088419     0.27000
H554        H  0.13662531  0.79642879  0.07052074     0.21800
H555        H  0.10049918  0.77989380  0.21724531     0.27100
H556        H  0.15295668  0.70981984  0.12947309     0.16000
C557        C  0.25255308  0.85421052  0.13614368    -0.11300
C558        C  0.27246534  0.89234350  0.13878327     0.15200
C559        C  0.25705353  0.90992569  0.15439747     0.02100
C560        C  0.22085711  0.88941246  0.16477197    -0.15700
C561        C  0.19822671  0.85130967  0.15931431    -0.10500
C562        C  0.21655586  0.83318734  0.14717291     0.08800
C563        C  0.30824069  0.91293891  0.12355987     0.09900
S564        S  0.28177691  0.95862812  0.16115170    -0.24800
H565        H  0.20938444  0.90393526  0.17592763     0.20100
S566        S  0.19913476  0.78428464  0.14887872    -0.30500
H567        H  0.26581214  0.84081471  0.12569069     0.10400
C568        C  0.33999808  0.91178944  0.13180074     0.03600
C569        C  0.37232170  0.92936196  0.11520958    -0.12800
C570        C  0.37338648  0.94780862  0.09040615    -0.08500
C571        C  0.34185446  0.95016280  0.08296193     0.07100
C572        C  0.30965165  0.93241954  0.09941126    -0.13600
S573        S  0.33926940  0.88794578  0.16340568    -0.30500
H574        H  0.39649980  0.92780551  0.12110239     0.11300
S575        S  0.34106418  0.97605783  0.05320312    -0.27600
H576        H  0.28531864  0.93360286  0.09325446     0.08600
H577        H  0.22050691  0.78224835  0.12661205     0.27000
H578        H  0.37597321  0.89509185  0.16133538     0.21800
H579        H  0.37806897  0.00439687  0.05586632     0.27100
H580        H  0.31742048  0.96284110  0.16044721     0.16000
C581        C  0.08596469  0.93750583  0.12400118    -0.11300
C582        C  0.08339624  0.90542265  0.11269870     0.15200
C583        C  0.06402381  0.89105182  0.08736194     0.02100
C584        C  0.04810080  0.90924332  0.07393412    -0.15700
C585        C  0.05082865  0.94159632  0.08498943    -0.10100
C586        C  0.07040700  0.95597566  0.11030079     0.08800
C587        C  0.10239622  0.88847128  0.12723314     0.09900
S588        S  0.05894886  0.85019454  0.07040854    -0.24800
H589        H  0.03326945  0.89785896  0.05454106     0.20100
S590        S  0.07866847  0.99885092  0.12522822    -0.30500
H591        H  0.10124464  0.94887523  0.14322240     0.10400
C592        C  0.13817227  0.89658680  0.11940118     0.03600
C593        C  0.15463173  0.87892710  0.13292044    -0.12800
C594        C  0.13696278  0.85342596  0.15527148    -0.08500
C595        C  0.09941978  0.84390979  0.16138600     0.07100
C596        C  0.08342422  0.86228975  0.14801734    -0.13600
S597        S  0.16243234  0.92845504  0.09114760    -0.30500
H598        H  0.18073054  0.88393575  0.12433973     0.11300
S599        S  0.07076428  0.80901398  0.18639183    -0.27600
H600        H  0.05548440  0.85579558  0.15335351     0.08600
H601        H  0.08542241  0.01700090  0.09927026     0.27000
H602        H  0.19660423  0.92978362  0.09420952     0.21800
H603        H  0.03676606  0.80654983  0.17992161     0.27100
H604        H  0.07233128  0.83729227  0.09177038     0.16000
C605        C  0.39803983  0.61397433  0.65554200    -0.11300
C606        C  0.39945795  0.61355090  0.62624808     0.15200
C607        C  0.38153337  0.62835804  0.61091760     0.02100
C608        C  0.36293943  0.64345506  0.62509277    -0.15700
C609        C  0.36290620  0.64670516  0.65485790    -0.10500
C610        C  0.37972079  0.62941350  0.67021729     0.08800
C611        C  0.41730323  0.59494258  0.61205999     0.09900
S612        S  0.38235058  0.63001025  0.57303225    -0.24800
H613        H  0.35026369  0.65531394  0.61234367     0.20100
S614        S  0.38068269  0.62464273  0.70785585    -0.30500
H615        H  0.41097619  0.60136927  0.66716898     0.10400
C616        C  0.45604971  0.61030503  0.61132004     0.03600
C617        C  0.47153551  0.59253227  0.59601414    -0.12800
C618        C  0.44907270  0.55982249  0.58113846    -0.08500
C619        C  0.41007253  0.54483046  0.58193813     0.07100
C620        C  0.39480403  0.56211828  0.59777747    -0.13600
S621        S  0.48576224  0.65322049  0.62893504    -0.30500
H622        H  0.50131369  0.60429277  0.59555798     0.11300
S623        S  0.37671581  0.00704981  0.55873437    -0.27600
H624        H  0.36501107  0.55060658  0.59813756     0.08600
H625        H  0.34276705  0.60960709  0.71289360     0.27000
H626        H  0.01551296  0.65317471  0.62154073     0.21800
H627        H  0.40001612  0.01924607  0.53487899     0.27100
H628        H  0.41788569  0.63437146  0.56968748     0.16000
C629        C  0.37567847  0.77235595  0.65215842    -0.11300
C630        C  0.40537002  0.78273346  0.63341040     0.15200
C631        C  0.41818665  0.75815219  0.62794122     0.02100
C632        C  0.40002367  0.72332258  0.63998966    -0.15700
C633        C  0.36715807  0.71033577  0.65649354    -0.10500
C634        C  0.35651920  0.73692237  0.66381452     0.08800
C635        C  0.42127734  0.81854314  0.61874038     0.09900
S636        S  0.45707217  0.76894829  0.60497657    -0.24800
H637        H  0.41263968  0.70679051  0.63602714     0.20100
S638        S  0.31671448  0.72590790  0.68597466    -0.30500
H639        H  0.36653951  0.79182754  0.65668932     0.10400
C640        C  0.40022849  0.82507408  0.59905521     0.03600
C641        C  0.41673583  0.85809296  0.58403042    -0.12800
C642        C  0.45419533  0.88456381  0.58763255    -0.08500
C643        C  0.47507119  0.87829573  0.60785509     0.07100
C644        C  0.45838072  0.84545369  0.62316394    -0.13600
S645        S  0.35294567  0.79040993  0.59165459    -0.30500
H646        H  0.40070739  0.86272380  0.56854382     0.11300
S647        S  0.02086358  0.90967802  0.61775404    -0.27600
H648        H  0.47453574  0.84058324  0.63841541     0.08600
H649        H  0.32306152  0.76182331  0.68932555     0.27000
H650        H  0.34717453  0.80903778  0.56963152     0.21800
H651        H  0.01703846  0.94092490  0.61537836     0.27100
H652        H  0.44886767  0.78841115  0.58515866     0.16000
C653        C  0.17095653  0.60468657  0.61661919    -0.11300
C654        C  0.19817477  0.59573023  0.60920510     0.15200
C655        C  0.18997091  0.56847946  0.58857744     0.02100
C656        C  0.15489578  0.55061008  0.57622906    -0.15700
C657        C  0.12775108  0.55987689  0.58329041    -0.10500
C658        C  0.13598187  0.58712735  0.60400525     0.08800
C659        C  0.23443472  0.61454592  0.62383481     0.09900
S660        S  0.22333060  0.55594715  0.57648753    -0.24800
H661        H  0.14918082  0.53005303  0.56021801     0.20100
S662        S  0.10273611  0.59970669  0.61616507    -0.30500
H663        H  0.17688730  0.62522951  0.63268090     0.10400
C664        C  0.25985205  0.65181391  0.61947784     0.03600
C665        C  0.29420929  0.66823807  0.63297981    -0.12800
C666        C  0.30432062  0.64918352  0.65239610    -0.08500
C667        C  0.27839038  0.61055456  0.65522710     0.07100
C668        C  0.24408298  0.59437053  0.64147055    -0.13600
S669        S  0.24961406  0.67820309  0.59507530    -0.30500
H670        H  0.31343893  0.69592330  0.62677963     0.11300
S671        S  0.28806747  0.57993556  0.67506454    -0.27600
H672        H  0.22470873  0.56530931  0.64388108     0.08600
H673        H  0.07201769  0.56399274  0.61459792     0.27000
H674        H  0.27959482  0.71287099  0.60200112     0.21800
H675        H  0.25132273  0.55106578  0.67808715     0.27100
H676        H  0.25481102  0.59070639  0.58034546     0.16000
C677        C  0.37095414  0.69393866  0.74576707    -0.11300
C678        C  0.33716780  0.67218626  0.75949263     0.15200
C679        C  0.30542392  0.65097467  0.74331654     0.02100
C680        C  0.30826497  0.65165540  0.71399938    -0.15700
C681        C  0.34277702  0.67052172  0.69943990    -0.10500
C682        C  0.37459215  0.69329423  0.71651822     0.08800
C683        C  0.33580053  0.67335221  0.79066195     0.09900
S684        S  0.26022441  0.62205995  0.75877991    -0.24800
H685        H  0.28249275  0.63691430  0.70304689     0.20100
S686        S  0.42137610  0.72290763  0.70391362    -0.30500
H687        H  0.39520243  0.71129589  0.75821667     0.10400
C688        C  0.35523664  0.66142084  0.80733232     0.03600
C689        C  0.35327233  0.66318397  0.83662362    -0.12800
C690        C  0.32926581  0.67319860  0.85059586    -0.08500
C691        C  0.31232335  0.68819864  0.83311774     0.07100
C692        C  0.31563885  0.68769510  0.80372194    -0.13600
S693        S  0.38180020  0.64265860  0.79142673    -0.30500
H694        H  0.37089151  0.65626605  0.84827799     0.11300
S695        S  0.28635752  0.70857180  0.84702535    -0.27600
H696        H  0.30236421  0.69855575  0.79057597     0.08600
H697        H  0.42235746  0.69825504  0.68465916     0.27000
H698        H  0.38906345  0.62955564  0.81626972     0.21800
H699        H  0.27010804  0.71044187  0.82183099     0.27100
H700        H  0.27288607  0.61278739  0.78291568     0.16000
C701        C  0.43353268  0.60457134  0.92866977    -0.11300
C702        C  0.39664723  0.59423026  0.93486777     0.15200
C703        C  0.37587137  0.56443165  0.95319719     0.02100
C704        C  0.39266963  0.54632169  0.96537445    -0.15700
C705        C  0.43013581  0.55766537  0.96019645    -0.10500
C706        C  0.45038731  0.58655872  0.94089163     0.08800
C707        C  0.38034859  0.61438250  0.92129143     0.09900
S708        S  0.32828774  0.54899899  0.96271674    -0.24800
H709        H  0.37672892  0.52424952  0.98007483     0.20100
S710        S  0.99551081  0.59874201  0.93017650    -0.30500
H711        H  0.44923946  0.62675671  0.91399625     0.10400
C712        C  0.39233531  0.65117115  0.92781539     0.03600
C713        C  0.37523908  0.66878654  0.91523729    -0.12800
C714        C  0.34566528  0.65072842  0.89592107    -0.08500
C715        C  0.33439279  0.61317741  0.88935557     0.07100
C716        C  0.35197789  0.59602909  0.90197561    -0.13600
S717        S  0.42765770  0.67510275  0.95394669    -0.30500
H718        H  0.38358674  0.69592782  0.92273951     0.11300
S719        S  0.29787597  0.58584527  0.86473622    -0.27600
H720        H  0.34321280  0.56767035  0.89716399     0.08600
H721        H  0.99048734  0.56313847  0.93150817     0.27000
H722        H  0.43198281  0.71011629  0.94985803     0.21800
H723        H  0.30443501  0.55626742  0.86215729     0.27100
H724        H  0.33095211  0.58359180  0.96115078     0.16000
C725        C  0.34373675  0.76169234  0.92171752    -0.11300
C726        C  0.38140396  0.78403889  0.91599736     0.15200
C727        C  0.39908573  0.77112063  0.89772911     0.02100
C728        C  0.37912293  0.73542551  0.88699780    -0.15700
C729        C  0.34154296  0.71096175  0.89438195    -0.10500
C730        C  0.32293421  0.72658968  0.91011388     0.08800
C731        C  0.40117432  0.81988295  0.93069381     0.09900
S732        S  0.44728418  0.79834787  0.88789888    -0.24800
H733        H  0.39385138  0.72581568  0.87377683     0.20100
S734        S  0.27319236  0.70628588  0.91485870    -0.30500
H735        H  0.33034358  0.77218588  0.93552883     0.10400
C736        C  0.39051361  0.84661698  0.92754053     0.03600
C737        C  0.40618166  0.87775874  0.94483115    -0.12800
C738        C  0.43286110  0.88321811  0.96492229    -0.08500
C739        C  0.44445251  0.85693180  0.96741361     0.07100
C740        C  0.42821751  0.82547669  0.95040551    -0.13600
S741        S  0.35730397  0.84136622  0.90120148    -0.30500
H742        H  0.39788031  0.89819625  0.94251430     0.11300
S743        S  0.97020070  0.85776853  0.99719354    -0.27600
H744        H  0.43566136  0.80445111  0.95303525     0.08600
H745        H  0.27241997  0.73871228  0.92074211     0.27000
H746        H  0.35720987  0.87410604  0.90712273     0.21800
H747        H  0.97233563  0.82637061  0.99011283     0.27100
H748        H  0.44938405  0.83262273  0.89058841     0.16000
C749        C  0.14999178  0.59780410  0.92294423    -0.11300
C750        C  0.17143912  0.58076430  0.92466215     0.15200
C751        C  0.15898781  0.54928513  0.94148538     0.02100
C752        C  0.12685530  0.53703029  0.95766022    -0.15700
C753        C  0.10617236  0.55514977  0.95734844    -0.10500
C754        C  0.11753850  0.58535235  0.93896770     0.08800
C755        C  0.20955517  0.60022046  0.91318574     0.09900
S756        S  0.18368637  0.52437570  0.94397896    -0.24800
H757        H  0.11849876  0.51346129  0.97111800     0.20100
S758        S  0.09197810  0.60898427  0.93471669    -0.30500
H759        H  0.15956030  0.62207092  0.91003883     0.10400
C760        C  0.21732079  0.60574062  0.88434867     0.03600
C761        C  0.25411118  0.62755229  0.87520694    -0.12800
C762        C  0.28396137  0.64511955  0.89429020    -0.08500
C763        C  0.27528733  0.63679802  0.92358268     0.07100
C764        C  0.23851676  0.61501595  0.93229536    -0.13600
S765        S  0.18040602  0.58406094  0.85915537    -0.30500
H766        H  0.25906672  0.62983220  0.85290997     0.11300
S767        S  0.30894738  0.65725770  0.95135975    -0.27600
H768        H  0.23193849  0.61076599  0.95452523     0.08600
H769        H  0.10138776  0.62495835  0.96160418     0.27000
H770        H  0.20276375  0.59597198  0.83481434     0.21800
H771        H  0.28867747  0.63076522  0.97204402     0.27100
H772        H  0.20070094  0.53434995  0.91733113     0.16000
C773        C  0.82286195  0.16966071  0.88576997    -0.02400
C774        C  0.84182799  0.16407933  0.66868134    -0.02400
C775        C  0.65793980  0.33532708  0.16666174    -0.02400
C776        C  0.67173557  0.32797171  0.38253030    -0.02400
Zn777      Zn  0.99236031  0.00213091  0.06619912     1.49700
Zn778      Zn  0.94044264  0.47569342  0.01076695     1.49400
Zn779      Zn  0.51385527  0.05103957  0.01056473     1.49100
Zn780      Zn  0.51526939  0.47565940  0.00973622     1.49500
O781        O  0.99060502  0.00130862  0.02478491    -1.84100
O782        O  0.94049974  0.47826904  0.08140976    -0.74700
O783        O  0.92848708  0.00941714  0.98795504    -0.74500
O784        O  0.53054601  0.08820816  0.04134289    -0.74000
O785        O  0.90493403  0.45924655  0.04349734    -0.74700
O786        O  0.51723032  0.05614564  0.08101811    -0.74300
O787        O  0.98198418  0.06175394  0.98676242    -0.74900
O788        O  0.55739592  0.00868915  0.98697367    -0.74300
O789        O  0.93060812  0.43124274  0.98762406    -0.75100
O790        O  0.55760243  0.06125206  0.98596906    -0.74400
O791        O  0.98434046  0.43242816  0.98855752    -0.74900
O792        O  0.53513111  0.45964579  0.04124792    -0.74800
O793        O  0.51752186  0.47611413  0.08013379    -0.74600
C794        C  0.90865169  0.46257817  0.07004181     0.77200
C795        C  0.94800428  0.04270334  0.98017306     0.77700
C796        C  0.53013235  0.08660434  0.06800501     0.76600
C797        C  0.57121205  0.04146222  0.97823799     0.77000
C798        C  0.95084173  0.41754912  0.98088653     0.78100
C799        C  0.53386088  0.46098627  0.06790428     0.77200
Zn800      Zn  0.53529275  0.47365649  0.53595243     1.49700
Zn801      Zn  0.95504496  0.46902220  0.54015892     1.49400
Zn802      Zn  0.53410791  0.04873256  0.53596016     1.49100
Zn803      Zn  0.00809792  0.99556140  0.48088365     1.49500
O804        O  0.00962015  0.99753114  0.52230223    -1.84100
O805        O  0.00000596  0.42833828  0.56576698    -0.74700
O806        O  0.94759845  0.00614412  0.55857923    -0.74500
O807        O  0.57773828  0.05890084  0.56048464    -0.74000
O808        O  0.94619385  0.42721811  0.56547935    -0.74700
O809        O  0.58035821  0.00764959  0.55692907    -0.74300
O810        O  0.99978150  0.05982765  0.55743143    -0.74900
O811        O  0.53219906  0.04907768  0.46513010    -0.74300
O812        O  0.91779413  0.44846675  0.50866756    -0.75100
O813        O  0.55486602  0.08378279  0.50333462    -0.74400
O814        O  0.95229586  0.46465604  0.46979474    -0.74900
O815        O  0.53342638  0.47177087  0.46532564    -0.74800
O816        O  0.55281267  0.45569493  0.50315337    -0.74600
C817        C  0.96634881  0.41436375  0.57382363     0.77200
C818        C  0.96583399  0.04014214  0.56457182     0.77700
C819        C  0.59323331  0.04020862  0.56614438     0.76600
C820        C  0.55127350  0.08028821  0.47677705     0.77000
C821        C  0.92074173  0.44938233  0.48197798     0.78100
C822        C  0.55073407  0.45742445  0.47658198     0.77200
C823        C  0.84986880  0.43234652  0.42545979    -0.11300
C824        C  0.81970982  0.39898482  0.43445542     0.15200
C825        C  0.82325428  0.38177477  0.45869023     0.02100
C826        C  0.85658817  0.39870015  0.47354043    -0.15700
C827        C  0.88661702  0.43248785  0.46490588    -0.10500
C828        C  0.88301662  0.44945049  0.44050831     0.08800
C829        C  0.78429515  0.38415770  0.41920325     0.09900
S830        S  0.78670253  0.33837425  0.47203391    -0.24800
H831        H  0.85908150  0.38536986  0.49211481     0.20100
S832        S  0.91863727  0.49391633  0.42843767    -0.30500
H833        H  0.84706620  0.44579006  0.40707806     0.10400
C834        C  0.75964796  0.39686690  0.42507992     0.03600
C835        C  0.72486634  0.38006442  0.41230070    -0.12800
C836        C  0.71308841  0.35002478  0.39337920    -0.08500
C837        C  0.73976713  0.33895470  0.38659854     0.07100
C838        C  0.77451929  0.35599014  0.39968871    -0.13600
S839        S  0.77147008  0.43290751  0.45069837    -0.30500
H840        H  0.70610122  0.38889291  0.41956437     0.11300
S841        S  0.73073547  0.30290911  0.36155699    -0.27600
H842        H  0.79403881  0.34670099  0.39530872     0.08600
H843        H  0.92888585  0.50931062  0.45544483     0.27000
H844        H  0.73969119  0.43610014  0.44760289     0.21800
H845        H  0.76733732  0.31000742  0.35855379     0.27100
H846        H  0.75666141  0.33702050  0.45800911     0.16000
C847        C  0.59962131  0.35078132  0.41884086    -0.11300
C848        C  0.61524175  0.38759366  0.41151912     0.15200
C849        C  0.64561327  0.40328158  0.39299613     0.02100
C850        C  0.66112363  0.38236759  0.38363534    -0.15700
C851        C  0.64812508  0.34577059  0.39276076    -0.10500
C852        C  0.61424160  0.32904429  0.40916534     0.08800
C853        C  0.60045052  0.40907942  0.42546979     0.09900
S854        S  0.66676727  0.45026443  0.38137822    -0.24800
H855        H  0.68532345  0.39574506  0.37009416     0.20100
S856        S  0.58609786  0.28058095  0.41751504    -0.30500
H857        H  0.57566681  0.33912534  0.43270970     0.10400
C858        C  0.56581385  0.40474423  0.41825122     0.03600
C859        C  0.55053923  0.42174007  0.43474422    -0.12800
C860        C  0.56925372  0.44278319  0.45838163    -0.08500
C861        C  0.60494887  0.44866016  0.46451484     0.07100
C862        C  0.61989555  0.43140816  0.44822777    -0.13600
S863        S  0.54101856  0.37717380  0.38828546    -0.30500
H864        H  0.52345348  0.41766852  0.42979453     0.11300
S865        S  0.63317061  0.47837739  0.49242394    -0.27600
H866        H  0.64669997  0.43495469  0.45356996     0.08600
H867        H  0.55351154  0.28015150  0.42614960     0.27000
H868        H  0.51133417  0.38406997  0.38980219     0.21800
H869        H  0.62155505  0.50429877  0.48927328     0.27100
H870        H  0.63471520  0.45320478  0.38370950     0.16000
C871        C  0.64367181  0.24592612  0.43371757    -0.11300
C872        C  0.63004729  0.21591771  0.41551172     0.15200
C873        C  0.63196576  0.22206739  0.38640178     0.02100
C874        C  0.64553603  0.25773590  0.37628660    -0.15700
C875        C  0.65724552  0.28842966  0.39442010    -0.10500
C876        C  0.65797863  0.28179102  0.42389306     0.08800
C877        C  0.61127850  0.17872169  0.42815876     0.09900
S878        S  0.61807927  0.18564793  0.36096754    -0.24800
H879        H  0.64761546  0.26098782  0.35379431     0.20100
S880        S  0.67164695  0.31700406  0.45054394    -0.30500
H881        H  0.64144609  0.24093364  0.45613535     0.10400
C882        C  0.62956436  0.16834887  0.44767968     0.03600
C883        C  0.60910424  0.13610317  0.46326856    -0.12800
C884        C  0.57093373  0.11335635  0.45919124    -0.08500
C885        C  0.55300476  0.12266609  0.43852966     0.07100
C886        C  0.57331766  0.15530513  0.42335924    -0.13600
S887        S  0.67906419  0.19593228  0.45250195    -0.30500
H888        H  0.62288948  0.12836567  0.47865159     0.11300
S889        S  0.50410325  0.09526766  0.43159285    -0.27600
H890        H  0.55907977  0.16331831  0.40857678     0.08600
H891        H  0.67796300  0.29815293  0.47211419     0.27000
H892        H  0.68214306  0.17343119  0.47273406     0.21800
H893        H  0.49328900  0.08348057  0.45942397     0.27100
H894        H  0.62554100  0.16286827  0.37785212     0.16000
C895        C  0.65671276  0.35966870  0.24663904    -0.11300
C896        C  0.66955924  0.33804649  0.25874437     0.15200
C897        C  0.68154623  0.31899400  0.24128297     0.02100
C898        C  0.67844266  0.32037165  0.21222498    -0.15700
C899        C  0.66166580  0.33867426  0.19937070    -0.10500
C900        C  0.65431974  0.36190773  0.21735153     0.08800
C901        C  0.67075621  0.33656626  0.28970017     0.09900
S902        S  0.70021819  0.29159171  0.25463245    -0.24800
H903        H  0.68716356  0.30470008  0.19954380     0.20100
S904        S  0.64859521  0.39939148  0.20513574    -0.30500
H905        H  0.65016496  0.37626384  0.26041042     0.10400
C906        C  0.70355429  0.35741489  0.30463179     0.03600
C907        C  0.70315186  0.35436396  0.33395405    -0.12800
C908        C  0.67067862  0.32978302  0.34938271    -0.08500
C909        C  0.63704636  0.31108963  0.33358854     0.07100
C910        C  0.63793001  0.31423323  0.30424697    -0.13600
S911        S  0.74580464  0.38891957  0.28631009    -0.30500
H912        H  0.72860332  0.37239373  0.34457711     0.11300
S913        S  0.59205572  0.28301892  0.34959484    -0.27600
H914        H  0.61274881  0.29919658  0.29226528     0.08600
H915        H  0.63229988  0.40392196  0.22974038     0.27000
H916        H  0.76938426  0.39933405  0.30962629     0.21800
H917        H  0.57042152  0.27285318  0.32520187     0.27100
H918        H  0.68017972  0.28148120  0.28006497     0.16000
C919        C  0.55252659  0.18175919  0.09154532    -0.11300
C920        C  0.58109099  0.19045683  0.11070547     0.15200
C921        C  0.59124062  0.16379964  0.11678344     0.02100
C922        C  0.57272011  0.12935917  0.10378431    -0.15700
C923        C  0.54513326  0.12123691  0.08392256    -0.10500
C924        C  0.53465531  0.14767107  0.07800348     0.08800
C925        C  0.59853692  0.22673178  0.12504486     0.09900
S926        S  0.62878516  0.17266516  0.13984982    -0.24800
H927        H  0.58117816  0.10938989  0.10816708     0.20100
S928        S  0.49816958  0.13933222  0.05387429    -0.30500
H929        H  0.54392970  0.20164006  0.08724348     0.10400
C930        C  0.61765544  0.25980092  0.11015512     0.03600
C931        C  0.63430552  0.29306128  0.12487661    -0.12800
C932        C  0.63435420  0.29520750  0.15475264    -0.08500
C933        C  0.61305284  0.26075967  0.16953663     0.07100
C934        C  0.59589710  0.22781276  0.15423973    -0.13600
S935        S  0.62334451  0.25987358  0.07243818    -0.30500
H936        H  0.64964190  0.31799800  0.11283086     0.11300
S937        S  0.60502686  0.25229229  0.20697533    -0.27600
H938        H  0.58022915  0.20203259  0.16539384     0.08600
H939        H  0.47658984  0.10148173  0.05924852     0.27000
H940        H  0.64684603  0.29792210  0.06915318     0.21800
H941        H  0.60267270  0.28271720  0.21558951     0.27100
H942        H  0.65123006  0.20926425  0.13131572     0.16000
C943        C  0.75375553  0.35531311  0.13386719    -0.11300
C944        C  0.77411397  0.39342010  0.13640415     0.15200
C945        C  0.75914532  0.41145753  0.15198753     0.02100
C946        C  0.72289075  0.39139314  0.16236906    -0.15700
C947        C  0.69981678  0.35334670  0.15692568    -0.10500
C948        C  0.71791566  0.33470592  0.14522112     0.08800
C949        C  0.80990316  0.41346274  0.12113334     0.09900
S950        S  0.78445532  0.46018389  0.15862340    -0.24800
H951        H  0.71172649  0.40620438  0.17355235     0.20100
S952        S  0.69989633  0.28563466  0.14723186    -0.30500
H953        H  0.76640077  0.34163129  0.12295973     0.10400
C954        C  0.84113975  0.41114089  0.12905910     0.03600
C955        C  0.87351880  0.42844847  0.11252653    -0.12800
C956        C  0.87508797  0.44763560  0.08803574    -0.08500
C957        C  0.84399132  0.45080724  0.08072561     0.07100
C958        C  0.81177518  0.43346716  0.09718144    -0.13600
S959        S  0.83970343  0.38613983  0.16017849    -0.30500
H960        H  0.89735105  0.42617092  0.11822379     0.11300
S961        S  0.84378655  0.47721481  0.05110702    -0.27600
H962        H  0.78779203  0.43537185  0.09118094     0.08600
H963        H  0.73208594  0.28508925  0.13889764     0.27000
H964        H  0.87599201  0.39217561  0.15779087     0.21800
H965        H  0.88098975  0.50507544  0.05379812     0.27100
H966        H  0.81994534  0.46405309  0.15748035     0.16000
C967        C  0.58149757  0.43648999  0.12540879    -0.11300
C968        C  0.58399676  0.40782180  0.11232100     0.15200
C969        C  0.56914047  0.39626940  0.08526903     0.02100
C970        C  0.55324527  0.41423652  0.07159373    -0.15700
C971        C  0.55110383  0.44344914  0.08429112    -0.10100
C972        C  0.56563477  0.45466084  0.11165483     0.08800
C973        C  0.60351512  0.39132533  0.12671557     0.09900
S974        S  0.57020144  0.35920871  0.06677272    -0.24800
H975        H  0.54206156  0.40491471  0.05079010     0.20100
S976        S  0.56690426  0.49311867  0.12954557    -0.30500
H977        H  0.59309138  0.44554759  0.14613942     0.10400
C978        C  0.63989470  0.40089714  0.11942161     0.03600
C979        C  0.65631721  0.38252462  0.13191491    -0.12800
C980        C  0.63837079  0.35563304  0.15331650    -0.08500
C981        C  0.60048229  0.34517085  0.15914996     0.07100
C982        C  0.58426510  0.36368358  0.14640798    -0.13600
S983        S  0.66533881  0.43618342  0.09354739    -0.30500
H984        H  0.68274583  0.38847358  0.12341969     0.11300
S985        S  0.57146031  0.30898400  0.18310561    -0.27600
H986        H  0.55595018  0.35618264  0.15146228     0.08600
H987        H  0.57847229  0.51586520  0.10568115     0.27000
H988        H  0.69984855  0.43845710  0.09731462     0.21800
H989        H  0.53713585  0.30236797  0.17284761     0.27100
H990        H  0.56807261  0.33872203  0.09059963     0.16000
C991        C  0.89381530  0.10773607  0.65542684    -0.11300
C992        C  0.89508576  0.10809001  0.62608597     0.15200
C993        C  0.87752864  0.12391505  0.61147537     0.02100
C994        C  0.85964461  0.13923919  0.62637533    -0.15700
C995        C  0.86020935  0.14203204  0.65618731    -0.10500
C996        C  0.87665708  0.12382824  0.67081184     0.08800
C997        C  0.91354307  0.09039755  0.61118861     0.09900
S998        S  0.87828970  0.12710264  0.57366532    -0.24800
H999        H  0.84706813  0.15166794  0.61415812     0.20100
S1000       S  0.87894906  0.11902324  0.70833936    -0.30500
H1001       H  0.90639662  0.09440444  0.66656100     0.10400
C1002       C  0.95198433  0.10403020  0.61328827     0.03600
C1003       C  0.96831051  0.08711595  0.59792025    -0.12800
C1004       C  0.94716418  0.05716842  0.58008474    -0.08500
C1005       C  0.90872928  0.04426467  0.57757587     0.07100
C1006       C  0.89232971  0.06028190  0.59368802    -0.13600
S1007       S  0.98056442  0.14384345  0.63462686    -0.30500
H1008       H  0.99772924  0.09730525  0.59977928     0.11300
S1009       S  0.87268286  0.49720219  0.56933053    -0.27600
H1010       H  0.86287573  0.05006642  0.59176856     0.08600
H1011       H  0.84132981  0.10448575  0.71438407     0.27000
H1012       H  0.51691844  0.14834695  0.62753236     0.21800
H1013       H  0.89053722  0.50811686  0.54299560     0.27100
H1014       H  0.91388090  0.13170051  0.56997542     0.16000
C1015       C  0.87151259  0.26750207  0.65591196    -0.11300
C1016       C  0.90027068  0.27829501  0.63624781     0.15200
C1017       C  0.91297037  0.25393606  0.62946164     0.02100
C1018       C  0.89603945  0.21913878  0.64160106    -0.15700
C1019       C  0.86404353  0.20571786  0.65913280    -0.10500
C1020       C  0.85322020  0.23193760  0.66740802     0.08800
C1021       C  0.91599179  0.31469020  0.62248105     0.09900
S1022       S  0.95006844  0.26502836  0.60456625    -0.24800
H1023       H  0.90870100  0.20287559  0.63668410     0.20100
S1024       S  0.81411544  0.22027618  0.69057433    -0.30500
H1025       H  0.86250613  0.28682755  0.66140273     0.10400
C1026       C  0.89504706  0.32200739  0.60324718     0.03600
C1027       C  0.91192387  0.35530850  0.58850410    -0.12800
C1028       C  0.94947157  0.38157982  0.59236549    -0.08500
C1029       C  0.96982175  0.37486290  0.61276753     0.07100
C1030       C  0.95299149  0.34147404  0.62735409    -0.13600
S1031       S  0.84745082  0.28800071  0.59608781    -0.30500
H1032       H  0.89611813  0.36028028  0.57303211     0.11300
S1033       S  0.52102613  0.41399352  0.61874167    -0.27600
H1034       H  0.96894425  0.33612860  0.64248179     0.08600
H1035       H  0.81782237  0.25531500  0.69244783     0.27000
H1036       H  0.84057497  0.30882685  0.57662280     0.21800
H1037       H  0.51664453  0.44471890  0.61487359     0.27100
H1038       H  0.94042178  0.28474595  0.58607901     0.16000
C1039       C  0.66844681  0.09843937  0.61886971    -0.11300
C1040       C  0.69639051  0.09073226  0.61106042     0.15200
C1041       C  0.68959665  0.06521766  0.58927997     0.02100
C1042       C  0.65532882  0.04836333  0.57573052    -0.15700
C1043       C  0.62762613  0.05679225  0.58297472    -0.10500
C1044       C  0.63419780  0.08165198  0.60528513     0.08800
C1045       C  0.73215459  0.10953475  0.62616361     0.09900
S1046       S  0.72370258  0.05361854  0.57729366    -0.24800
H1047       H  0.65075314  0.02938372  0.55868877     0.20100
S1048       S  0.59964153  0.09195012  0.61829061    -0.30500
H1049       H  0.67328802  0.11747387  0.63592339     0.10400
C1050       C  0.75690529  0.14708059  0.62259266     0.03600
C1051       C  0.79104403  0.16362598  0.63629312    -0.12800
C1052       C  0.80159229  0.14433197  0.65511425    -0.08500
C1053       C  0.77611371  0.10550868  0.65743170     0.07100
C1054       C  0.74192907  0.08924646  0.64352462    -0.13600
S1055       S  0.74614056  0.17383847  0.59896294    -0.30500
H1056       H  0.80979329  0.19158525  0.63054313     0.11300
S1057       S  0.78590201  0.07498893  0.67733697    -0.27600
H1058       H  0.72257098  0.06017881  0.64583117     0.08600
H1059       H  0.56973390  0.05604802  0.61487191     0.27000
H1060       H  0.77476933  0.20858458  0.60734660     0.21800
H1061       H  0.75700463  0.04149309  0.66716476     0.27100
H1062       H  0.75497223  0.08790093  0.58301530     0.16000
C1063       C  0.86987686  0.18870124  0.74774142    -0.11300
C1064       C  0.83607173  0.16783297  0.76170471     0.15200
C1065       C  0.80407303  0.14660840  0.74580102     0.02100
C1066       C  0.80659290  0.14650585  0.71650429    -0.15700
C1067       C  0.84090977  0.16512404  0.70167368    -0.10500
C1068       C  0.87309136  0.18764806  0.71846451     0.08800
C1069       C  0.83479668  0.17007846  0.79280589     0.09900
S1070       S  0.75882206  0.11903399  0.76160506    -0.24800
H1071       H  0.78065523  0.13175787  0.70573649     0.20100
S1072       S  0.91974668  0.21673109  0.70533967    -0.30500
H1073       H  0.89436856  0.20595273  0.75998914     0.10400
C1074       C  0.85302814  0.15739113  0.81006143     0.03600
C1075       C  0.85050500  0.15952510  0.83929382    -0.12800
C1076       C  0.82739449  0.17118079  0.85260904    -0.08500
C1077       C  0.81170327  0.18684682  0.83448248     0.07100
C1078       C  0.81533941  0.18560833  0.80518003    -0.13600
S1079       S  0.87867726  0.13717075  0.79494168    -0.30500
H1080       H  0.86713092  0.15178562  0.85140086     0.11300
S1081       S  0.78621681  0.20825488  0.84738229    -0.27600
H1082       H  0.80244618  0.19638083  0.79154294     0.08600
H1083       H  0.91948873  0.19280617  0.68481165     0.27000
H1084       H  0.88561141  0.12457342  0.82018131     0.21800
H1085       H  0.78325473  0.22327225  0.82191227     0.27100
H1086       H  0.77121624  0.11005899  0.78603309     0.16000
C1087       C  0.93230427  0.10588174  0.93234579    -0.11300
C1088       C  0.89576481  0.09597482  0.93950002     0.15200
C1089       C  0.87604989  0.06735697  0.95898768     0.02100
C1090       C  0.89327703  0.04946730  0.97087545    -0.15700
C1091       C  0.93024880  0.05997482  0.96434482    -0.10500
C1092       C  0.94966597  0.08822162  0.94438934     0.08800
C1093       C  0.87863573  0.11523369  0.92566247     0.09900
S1094       S  0.82931361  0.05316191  0.97024823    -0.24800
H1095       H  0.87807041  0.02810238  0.98626030     0.20100
S1096       S  0.49697825  0.10100246  0.93391052    -0.30500
H1097       H  0.94728472  0.12734148  0.91697898     0.10400
C1098       C  0.89080931  0.15232081  0.93104977     0.03600
C1099       C  0.87335462  0.16926496  0.91799889    -0.12800
C1100       C  0.84343061  0.15037639  0.89907258    -0.08500
C1101       C  0.83149809  0.11233568  0.89403503     0.07100
C1102       C  0.84942706  0.09580695  0.90715921    -0.13600
S1103       S  0.92712075  0.17768583  0.95619140    -0.30500
H1104       H  0.88194087  0.19676739  0.92472597     0.11300
S1105       S  0.79420027  0.08388632  0.87031313    -0.27600
H1106       H  0.84065636  0.06727203  0.90309854     0.08600
H1107       H  0.49252497  0.06557965  0.93406422     0.27000
H1108       H  0.93126568  0.21244020  0.95108874     0.21800
H1109       H  0.79239494  0.05021858  0.87569011     0.27100
H1110       H  0.83228249  0.08780574  0.96771139     0.16000
C1111       C  0.84426148  0.26313264  0.92140511    -0.11300
C1112       C  0.88197864  0.28443726  0.91539386     0.15200
C1113       C  0.89880742  0.27039301  0.89738536     0.02100
C1114       C  0.87799894  0.23449689  0.88731455    -0.15700
C1115       C  0.84042215  0.21093851  0.89522769    -0.10500
C1116       C  0.82261351  0.22766909  0.91059960     0.08800
C1117       C  0.90271415  0.32047297  0.92955943     0.09900
S1118       S  0.94695566  0.29638220  0.88713955    -0.24800
H1119       H  0.89211050  0.22394679  0.87436256     0.20100
S1120       S  0.77290226  0.20855748  0.91495648    -0.30500
H1121       H  0.83165434  0.27499029  0.93460995     0.10400
C1122       C  0.89344990  0.34806237  0.92556794     0.03600
C1123       C  0.90957805  0.37937457  0.94262698    -0.12800
C1124       C  0.93528877  0.38405505  0.96333433    -0.08500
C1125       C  0.94558951  0.35692063  0.96662425     0.07100
C1126       C  0.92896592  0.32535695  0.94977013    -0.13600
S1127       S  0.86121874  0.34349787  0.89861117    -0.30500
H1128       H  0.90226338  0.40045013  0.93975371     0.11300
S1129       S  0.47775351  0.36057460  0.99122677    -0.27600
H1130       H  0.93532687  0.30366421  0.95297734     0.08600
H1131       H  0.77290401  0.23547445  0.93260243     0.27000
H1132       H  0.86306974  0.37739790  0.90334748     0.21800
H1133       H  0.48223701  0.33136023  0.98154976     0.27100
H1134       H  0.95013158  0.33116153  0.88942861     0.16000
C1135       C  0.64949151  0.10202749  0.92725802    -0.11300
C1136       C  0.66935821  0.08331632  0.92649532     0.15200
C1137       C  0.65548846  0.04978530  0.94080947     0.02100
C1138       C  0.62329221  0.03676808  0.95702081    -0.15700
C1139       C  0.60408469  0.05631609  0.95924242    -0.10500
C1140       C  0.61709143  0.08899429  0.94338491     0.08800
C1141       C  0.70745146  0.10259533  0.91521366     0.09900
S1142       S  0.67857498  0.02319709  0.94009970    -0.24800
H1143       H  0.61375830  0.01142508  0.96851139     0.20100
S1144       S  0.59415260  0.11556216  0.94276656    -0.30500
H1145       H  0.66032102  0.12793655  0.91628431     0.10400
C1146       C  0.71529056  0.10742782  0.88639508     0.03600
C1147       C  0.75218675  0.12817296  0.87726754    -0.12800
C1148       C  0.78201995  0.14569944  0.89638325    -0.08500
C1149       C  0.77314030  0.13848735  0.92576588     0.07100
C1150       C  0.73625033  0.11733975  0.93443716    -0.13600
S1151       S  0.67825059  0.08626033  0.86125929    -0.30500
H1152       H  0.75719588  0.12970236  0.85499832     0.11300
S1153       S  0.80688360  0.15948170  0.95346507    -0.27600
H1154       H  0.72942710  0.11342772  0.95663124     0.08600
H1155       H  0.60371566  0.12742154  0.97070422     0.27000
H1156       H  0.70056062  0.09808768  0.83689311     0.21800
H1157       H  0.78530319  0.13599489  0.97538900     0.27100
H1158       H  0.69572423  0.03555071  0.91370273     0.16000
C1159       C  0.82404444  0.66942820  0.88513770    -0.02400
C1160       C  0.84275583  0.66850561  0.66817247    -0.02400
C1161       C  0.65684092  0.83351184  0.16641695    -0.02400
C1162       C  0.67176328  0.82849175  0.38246712    -0.02400
Zn1163     Zn  0.99286089  0.50325371  0.06560719     1.49700
Zn1164     Zn  0.93953540  0.97602652  0.01112259     1.49400
Zn1165     Zn  0.51542205  0.55119308  0.00774330     1.49100
Zn1166     Zn  0.51499744  0.97664045  0.01208248     1.49500
O1167       O  0.99158223  0.50207567  0.02421203    -1.84100
O1168       O  0.93991413  0.97842795  0.08198815    -0.74700
O1169       O  0.92856547  0.50802622  0.98703802    -0.74500
O1170       O  0.53246681  0.58823094  0.03911567    -0.74000
O1171       O  0.90450494  0.96048101  0.04397078    -0.74700
O1172       O  0.51775734  0.55514106  0.07839836    -0.74300
O1173       O  0.98161864  0.56084025  0.98561059    -0.74900
O1174       O  0.55714136  0.50692437  0.98422771    -0.74300
O1175       O  0.92821258  0.93117302  0.98765909    -0.75100
O1176       O  0.55910428  0.56046556  0.98296741    -0.74400
O1177       O  0.98129531  0.93108932  0.98893572    -0.74900
O1178       O  0.53433752  0.96012395  0.04346594    -0.74800
O1179       O  0.51758095  0.97675546  0.08271404    -0.74600
C1180       C  0.90812221  0.96377870  0.07051850     0.77200
C1181       C  0.94775691  0.54119745  0.97891358     0.77700
C1182       C  0.53148998  0.58592779  0.06580013     0.76600
C1183       C  0.57162921  0.53965622  0.97529725     0.77000
C1184       C  0.94791960  0.91682023  0.98113318     0.78100
C1185       C  0.53336937  0.96128720  0.07013904     0.77200
Zn1186     Zn  0.53533430  0.97360505  0.53447625     1.49700
Zn1187     Zn  0.95881972  0.97178477  0.53687305     1.49400
Zn1188     Zn  0.53526784  0.54924870  0.53600313     1.49100
Zn1189     Zn  0.00475332  0.49183372  0.48426643     1.49500
O1190       O  0.00590733  0.49461267  0.52555030    -1.84100
O1191       O  0.00341063  0.93072635  0.56228349    -0.74700
O1192       O  0.94417030  0.50346563  0.56244630    -0.74500
O1193       O  0.57838774  0.55942711  0.56069656    -0.74000
O1194       O  0.94997015  0.93030590  0.56245740    -0.74700
O1195       O  0.58081971  0.50801135  0.55800768    -0.74300
O1196       O  0.99617682  0.55706008  0.56058769    -0.74900
O1197       O  0.53441569  0.54908675  0.46528735    -0.74300
O1198       O  0.92141973  0.95124750  0.50568313    -0.75100
O1199       O  0.55665306  0.58394522  0.50343044    -0.74400
O1200       O  0.95506246  0.97028022  0.46645633    -0.74900
O1201       O  0.53385348  0.97335618  0.46394718    -0.74800
O1202       O  0.55360582  0.95695771  0.50130651    -0.74600
C1203       C  0.96992516  0.91715985  0.57063662     0.77200
C1204       C  0.96246982  0.53749214  0.56836789     0.77700
C1205       C  0.59377973  0.54080071  0.56674482     0.76600
C1206       C  0.55352134  0.58035466  0.47688266     0.77000
C1207       C  0.92372120  0.95381549  0.47902180     0.78100
C1208       C  0.55157908  0.95920221  0.47478947     0.77200
C1209       C  0.84959632  0.93865535  0.42571936    -0.11300
C1210       C  0.82043469  0.90423209  0.43407064     0.15200
C1211       C  0.82569319  0.88609644  0.45689671     0.02100
C1212       C  0.85977252  0.90263480  0.47073842    -0.15700
C1213       C  0.88892217  0.93728393  0.46265623    -0.10500
C1214       C  0.88346241  0.95556795  0.43995251     0.08800
C1215       C  0.78462547  0.88806060  0.41900279     0.09900
S1216       S  0.78995590  0.84196123  0.46954196    -0.24800
H1217       H  0.86347341  0.88839620  0.48817931     0.20100
S1218       S  0.91762861  0.00129431  0.42916712    -0.30500
H1219       H  0.84556913  0.95285079  0.40841171     0.10400
C1220       C  0.75971640  0.90080361  0.42361081     0.03600
C1221       C  0.72462537  0.88249417  0.41124594    -0.12800
C1222       C  0.71305358  0.85138657  0.39345194    -0.08500
C1223       C  0.73991991  0.84018438  0.38795415     0.07100
C1224       C  0.77475279  0.85841340  0.40091904    -0.13600
S1225       S  0.77151224  0.93893890  0.44711096    -0.30500
H1226       H  0.70564809  0.89138328  0.41782721     0.11300
S1227       S  0.73141977  0.80312368  0.36412315    -0.27600
H1228       H  0.79463100  0.84942425  0.39714020     0.08600
H1229       H  0.92911683  0.01461413  0.45655610     0.27000
H1230       H  0.74124715  0.94362469  0.44081576     0.21800
H1231       H  0.76144127  0.79883249  0.37198817     0.27100
H1232       H  0.75983874  0.84682705  0.46328358     0.16000
C1233       C  0.59906219  0.85163637  0.41733677    -0.11300
C1234       C  0.61425270  0.88810209  0.40910113     0.15200
C1235       C  0.64415763  0.90313306  0.39014304     0.02100
C1236       C  0.66005443  0.88223402  0.38161889    -0.15700
C1237       C  0.64772658  0.84620758  0.39185076    -0.10500
C1238       C  0.61396538  0.82984372  0.40836156     0.08800
C1239       C  0.60024238  0.91027297  0.42305592     0.09900
S1240       S  0.66437664  0.94938290  0.37703551    -0.24800
H1241       H  0.68405360  0.89526400  0.36786005     0.20100
S1242       S  0.58635694  0.78176155  0.41782078    -0.30500
H1243       H  0.57537412  0.84030875  0.43147574     0.10400
C1244       C  0.56654720  0.90775929  0.41533854     0.03600
C1245       C  0.55186228  0.92526496  0.43191499    -0.12800
C1246       C  0.57014431  0.94489459  0.45620280    -0.08500
C1247       C  0.60505551  0.94904307  0.46280644     0.07100
C1248       C  0.61943655  0.93138464  0.44637489    -0.13600
S1249       S  0.54206890  0.88166249  0.38474746    -0.30500
H1250       H  0.52539248  0.92246842  0.42658661     0.11300
S1251       S  0.63294108  0.97684790  0.49160496    -0.27600
H1252       H  0.64555883  0.93355995  0.45209244     0.08600
H1253       H  0.55257151  0.78082617  0.42284446     0.27000
H1254       H  0.51308181  0.88959522  0.38622525     0.21800
H1255       H  0.62287926  0.00398208  0.48886937     0.27100
H1256       H  0.63210336  0.95192795  0.37936240     0.16000
C1257       C  0.64477052  0.74753799  0.43475539    -0.11300
C1258       C  0.63158424  0.71722597  0.41684586     0.15200
C1259       C  0.63337537  0.72288371  0.38768026     0.02100
C1260       C  0.64619099  0.75822919  0.37717826    -0.15700
C1261       C  0.65752836  0.78921697  0.39493630    -0.10500
C1262       C  0.65846948  0.78319401  0.42449366     0.08800
C1263       C  0.61309046  0.68007488  0.42962520     0.09900
S1264       S  0.62033006  0.68617755  0.36261838    -0.24800
H1265       H  0.64820110  0.76102088  0.35465908     0.20100
S1266       S  0.67215864  0.81907708  0.45057621    -0.30500
H1267       H  0.64274681  0.74295002  0.45721912     0.10400
C1268       C  0.63149525  0.66967475  0.44901971     0.03600
C1269       C  0.61130415  0.63675282  0.46392733    -0.12800
C1270       C  0.57327984  0.61353521  0.45940607    -0.08500
C1271       C  0.55525512  0.62311328  0.43903519     0.07100
C1272       C  0.57530260  0.65625419  0.42445181    -0.13600
S1273       S  0.68077892  0.69799461  0.45449802    -0.30500
H1274       H  0.62513834  0.62894655  0.47921407     0.11300
S1275       S  0.50646597  0.59544929  0.43182723    -0.27600
H1276       H  0.56096296  0.66427896  0.40977830     0.08600
H1277       H  0.67857570  0.80078726  0.47252605     0.27000
H1278       H  0.68392701  0.67562260  0.47481415     0.21800
H1279       H  0.49548421  0.58344725  0.45959793     0.27100
H1280       H  0.62881392  0.66435899  0.37977351     0.16000
C1281       C  0.65596067  0.85825189  0.24638640    -0.11300
C1282       C  0.66944912  0.83716048  0.25848820     0.15200
C1283       C  0.68200066  0.81862878  0.24096470     0.02100
C1284       C  0.67856493  0.81972071  0.21189802    -0.15700
C1285       C  0.66096644  0.83726883  0.19911604    -0.10500
C1286       C  0.65368174  0.86057219  0.21708405     0.08800
C1287       C  0.67075096  0.83569054  0.28948041     0.09900
S1288       S  0.70155720  0.79200830  0.25428525    -0.24800
H1289       H  0.68763564  0.80436839  0.19916086     0.20100
S1290       S  0.64710305  0.89752148  0.20474842    -0.30500
H1291       H  0.64835756  0.87404751  0.26015868     0.10400
C1292       C  0.70367512  0.85634594  0.30434187     0.03600
C1293       C  0.70340272  0.85341194  0.33368038    -0.12800
C1294       C  0.67086908  0.82935411  0.34925426    -0.08500
C1295       C  0.63723450  0.81033585  0.33348186     0.07100
C1296       C  0.63796928  0.81347547  0.30413892    -0.13600
S1297       S  0.74590470  0.88769462  0.28592092    -0.30500
H1298       H  0.72898204  0.87130184  0.34419479     0.11300
S1299       S  0.59227415  0.78224353  0.34952595    -0.27600
H1300       H  0.61262006  0.79871359  0.29229357     0.08600
H1301       H  0.65371266  0.91683708  0.23023027     0.27000
H1302       H  0.76947385  0.89868935  0.30926425     0.21800
H1303       H  0.57277994  0.76399859  0.32518711     0.27100
H1304       H  0.68099283  0.78106778  0.27947223     0.16000
C1305       C  0.54946684  0.67800035  0.09365739    -0.11300
C1306       C  0.58018888  0.68807068  0.11089580     0.15200
C1307       C  0.59344478  0.66328040  0.11429680     0.02100
C1308       C  0.57595589  0.62934361  0.10044733    -0.15700
C1309       C  0.54619957  0.61999437  0.08240760    -0.10500
C1310       C  0.53251584  0.64443993  0.07930312     0.08800
C1311       C  0.59752950  0.72428430  0.12534799     0.09900
S1312       S  0.63361894  0.67413037  0.13490998    -0.24800
H1313       H  0.58670791  0.61079635  0.10276011     0.20100
S1314       S  0.49327153  0.63421001  0.05761408    -0.30500
H1315       H  0.53868601  0.69651778  0.09132470     0.10400
C1316       C  0.61519116  0.75728887  0.11031256     0.03600
C1317       C  0.63265379  0.79063908  0.12489181    -0.12800
C1318       C  0.63369324  0.79309689  0.15475827    -0.08500
C1319       C  0.61338289  0.75864576  0.16975162     0.07100
C1320       C  0.59649470  0.72548009  0.15462690    -0.13600
S1321       S  0.61775638  0.75716014  0.07238149    -0.30500
H1322       H  0.64749749  0.81542183  0.11262365     0.11300
S1323       S  0.60621962  0.75055316  0.20725957    -0.27600
H1324       H  0.58200197  0.69970110  0.16593531     0.08600
H1325       H  0.47477688  0.59597630  0.06154555     0.27000
H1326       H  0.63491948  0.79534437  0.06852983     0.21800
H1327       H  0.60261621  0.78038141  0.21557187     0.27100
H1328       H  0.65341615  0.71106297  0.12659625     0.16000
C1329       C  0.75318453  0.85646992  0.13285549    -0.11300
C1330       C  0.77245616  0.89464048  0.13530317     0.15200
C1331       C  0.75662816  0.91185394  0.15085179     0.02100
C1332       C  0.72074962  0.89079667  0.16166307    -0.15700
C1333       C  0.69866653  0.85254844  0.15644689    -0.10500
C1334       C  0.71739171  0.83494588  0.14412918     0.08800
C1335       C  0.80850746  0.91552088  0.12056940     0.09900
S1336       S  0.78027346  0.96071345  0.15689482    -0.24800
H1337       H  0.70897385  0.90498914  0.17291372     0.20100
S1338       S  0.70079427  0.78619630  0.14601727    -0.30500
H1339       H  0.76688197  0.84346553  0.12246355     0.10400
C1340       C  0.84056232  0.91614431  0.13035873     0.03600
C1341       C  0.87322249  0.93327352  0.11415454    -0.12800
C1342       C  0.87442007  0.94984857  0.08834090    -0.08500
C1343       C  0.84269485  0.95109018  0.07955109     0.07100
C1344       C  0.81005013  0.93345413  0.09551424    -0.13600
S1345       S  0.83969423  0.89493259  0.16340656    -0.30500
H1346       H  0.89753071  0.93268839  0.12115810     0.11300
S1347       S  0.84216273  0.97545458  0.04867605    -0.27600
H1348       H  0.78552535  0.93353444  0.08829766     0.08600
H1349       H  0.72318989  0.78453873  0.12439837     0.27000
H1350       H  0.87757466  0.90591021  0.16376941     0.21800
H1351       H  0.87871616  0.00461172  0.05173542     0.27100
H1352       H  0.81637319  0.96611304  0.15603575     0.16000
C1353       C  0.57953171  0.93376803  0.12681787    -0.11300
C1354       C  0.58204411  0.90557583  0.11290960     0.15200
C1355       C  0.56766632  0.89531886  0.08560864     0.02100
C1356       C  0.55223319  0.91409302  0.07253834    -0.15700
C1357       C  0.55015590  0.94291604  0.08603491    -0.10100
C1358       C  0.56418799  0.95280086  0.11364363     0.08800
C1359       C  0.60140695  0.88852331  0.12668606     0.09900
S1360       S  0.56874301  0.85896008  0.06601645    -0.24800
H1361       H  0.54138651  0.90571035  0.05153906     0.20100
S1362       S  0.56549087  0.99059903  0.13260139    -0.30500
H1363       H  0.59080784  0.94184990  0.14773581     0.10400
C1364       C  0.63728985  0.89733249  0.11851131     0.03600
C1365       C  0.65384592  0.87911474  0.13092327    -0.12800
C1366       C  0.63663051  0.85312853  0.15301616    -0.08500
C1367       C  0.59895471  0.84284250  0.15941828     0.07100
C1368       C  0.58255440  0.86130547  0.14680127    -0.13600
S1369       S  0.66197504  0.93150036  0.09169455    -0.30500
H1370       H  0.67984730  0.88447633  0.12190681     0.11300
S1371       S  0.57071399  0.80680057  0.18380294    -0.27600
H1372       H  0.55443174  0.85412191  0.15218727     0.08600
H1373       H  0.57794210  0.01446915  0.10938935     0.27000
H1374       H  0.69581846  0.93187944  0.09351174     0.21800
H1375       H  0.53730498  0.80686670  0.18034119     0.27100
H1376       H  0.56731877  0.83787795  0.08924550     0.16000
C1377       C  0.89560605  0.61258753  0.65738008    -0.11300
C1378       C  0.89558053  0.61058422  0.62812461     0.15200
C1379       C  0.87722074  0.62491298  0.61277177     0.02100
C1380       C  0.86002024  0.64151849  0.62689639    -0.15700
C1381       C  0.86115041  0.64602819  0.65659405    -0.10500
C1382       C  0.87820915  0.62898817  0.67200232     0.08800
C1383       C  0.91310000  0.59148638  0.61418159     0.09900
S1384       S  0.87540239  0.62371738  0.57490916    -0.24800
H1385       H  0.84705068  0.65304328  0.61410929     0.20100
S1386       S  0.88039478  0.62538661  0.70965381    -0.30500
H1387       H  0.90890888  0.60038825  0.66905393     0.10400
C1388       C  0.95184822  0.60747898  0.61226295     0.03600
C1389       C  0.96709826  0.58909922  0.59750495    -0.12800
C1390       C  0.94441878  0.55499855  0.58437473    -0.08500
C1391       C  0.90534450  0.53919000  0.58655705     0.07100
C1392       C  0.89034785  0.55730634  0.60173662    -0.13600
S1393       S  0.98183280  0.65195627  0.62766403    -0.30500
H1394       H  0.99691404  0.60159592  0.59602015     0.11300
S1395       S  0.87937308  0.00937364  0.55282691    -0.27600
H1396       H  0.86051598  0.54520140  0.60311586     0.08600
H1397       H  0.84251103  0.60984533  0.71519129     0.27000
H1398       H  0.51954742  0.65501969  0.62211835     0.21800
H1399       H  0.90569518  0.02282035  0.53082965     0.27100
H1400       H  0.91037405  0.62708949  0.57052634     0.16000
C1401       C  0.87354506  0.77180341  0.65367949    -0.11300
C1402       C  0.90237530  0.78189167  0.63417428     0.15200
C1403       C  0.91454692  0.75698282  0.62787046     0.02100
C1404       C  0.89707519  0.72238514  0.64034033    -0.15700
C1405       C  0.86515599  0.70976123  0.65785872    -0.10500
C1406       C  0.85466346  0.73642097  0.66544532     0.08800
C1407       C  0.91867673  0.81810780  0.62004658     0.09900
S1408       S  0.95174742  0.76713362  0.60330242    -0.24800
H1409       H  0.90934747  0.70568619  0.63576451     0.20100
S1410       S  0.81564905  0.72573230  0.68843681    -0.30500
H1411       H  0.86513774  0.79163033  0.65902995     0.10400
C1412       C  0.89785868  0.82579268  0.60095639     0.03600
C1413       C  0.91511659  0.85886177  0.58594301    -0.12800
C1414       C  0.95293242  0.88454220  0.58934276    -0.08500
C1415       C  0.97326457  0.87745169  0.60952273     0.07100
C1416       C  0.95600861  0.84432101  0.62445260    -0.13600
S1417       S  0.84989735  0.79247999  0.59422872    -0.30500
H1418       H  0.89934647  0.86406708  0.57059130     0.11300
S1419       S  0.52270946  0.91114126  0.61553136    -0.27600
H1420       H  0.97188889  0.83870578  0.63946260     0.08600
H1421       H  0.81232801  0.75657982  0.68223963     0.27000
H1422       H  0.84279044  0.81432571  0.57597188     0.21800
H1423       H  0.51870413  0.94218570  0.61237385     0.27100
H1424       H  0.94272814  0.78691643  0.58438508     0.16000
C1425       C  0.66839130  0.60000891  0.61937275    -0.11300
C1426       C  0.69722168  0.59394485  0.61093561     0.15200
C1427       C  0.69133899  0.56931357  0.58867585     0.02100
C1428       C  0.65687196  0.55130698  0.57545838    -0.15700
C1429       C  0.62819666  0.55795450  0.58342837    -0.10500
C1430       C  0.63399613  0.58221790  0.60602422     0.08800
C1431       C  0.73288265  0.61317930  0.62605457     0.09900
S1432       S  0.72691391  0.56039413  0.57566847    -0.24800
H1433       H  0.65288879  0.53296544  0.55807048     0.20100
S1434       S  0.59833078  0.59059208  0.61956362    -0.30500
H1435       H  0.67264764  0.61848709  0.63671644     0.10400
C1436       C  0.75749029  0.65066689  0.62214127     0.03600
C1437       C  0.79184073  0.66742498  0.63553027    -0.12800
C1438       C  0.80252975  0.64848833  0.65460014    -0.08500
C1439       C  0.77701453  0.60973854  0.65746449     0.07100
C1440       C  0.74283715  0.59317767  0.64355645    -0.13600
S1441       S  0.74624613  0.67700416  0.59845884    -0.30500
H1442       H  0.81054668  0.69524815  0.62942023     0.11300
S1443       S  0.78706202  0.57965410  0.67776093    -0.27600
H1444       H  0.72371921  0.56405006  0.64578815     0.08600
H1445       H  0.56912802  0.55451583  0.61532126     0.27000
H1446       H  0.77478456  0.71189816  0.60667459     0.21800
H1447       H  0.75254490  0.54732535  0.67542731     0.27100
H1448       H  0.75712885  0.59526459  0.58171715     0.16000
C1449       C  0.87056196  0.69373998  0.74719767    -0.11300
C1450       C  0.83695331  0.67187077  0.76111722     0.15200
C1451       C  0.80493664  0.65081578  0.74520267     0.02100
C1452       C  0.80735482  0.65155304  0.71590796    -0.15700
C1453       C  0.84167300  0.67038875  0.70111026    -0.10500
C1454       C  0.87372043  0.69331147  0.71789602     0.08800
C1455       C  0.83583094  0.67307410  0.79222338     0.09900
S1456       S  0.75988339  0.62210812  0.76098493    -0.24800
H1457       H  0.78140807  0.63687984  0.70516150     0.20100
S1458       S  0.92020018  0.72312331  0.70477200    -0.30500
H1459       H  0.89498202  0.71104710  0.75949493     0.10400
C1460       C  0.85461102  0.66035849  0.80883846     0.03600
C1461       C  0.85230412  0.66169354  0.83813899    -0.12800
C1462       C  0.82866819  0.67222795  0.85203726    -0.08500
C1463       C  0.81228618  0.68784589  0.83456433     0.07100
C1464       C  0.81593577  0.68767187  0.80523972    -0.13600
S1465       S  0.88048579  0.64094037  0.79279295    -0.30500
H1466       H  0.86929853  0.65401730  0.84984917     0.11300
S1467       S  0.78561324  0.70758169  0.84826385    -0.27600
H1468       H  0.80259999  0.69844153  0.79206098     0.08600
H1469       H  0.92071974  0.69877506  0.68496512     0.27000
H1470       H  0.88860545  0.62860832  0.81765609     0.21800
H1471       H  0.78182870  0.72285830  0.82321364     0.27100
H1472       H  0.77274212  0.61257855  0.78487807     0.16000
C1473       C  0.93231821  0.60346815  0.93013176    -0.11300
C1474       C  0.89592018  0.59397210  0.93734375     0.15200
C1475       C  0.87589826  0.56535627  0.95676825     0.02100
C1476       C  0.89291254  0.54739866  0.96887278    -0.15700
C1477       C  0.92987280  0.55776793  0.96248994    -0.10500
C1478       C  0.94938038  0.58558305  0.94224939     0.08800
C1479       C  0.87932236  0.61380026  0.92372237     0.09900
S1480       S  0.82904100  0.55123111  0.96765425    -0.24800
H1481       H  0.87761255  0.52620669  0.98435943     0.20100
S1482       S  0.49728080  0.60105657  0.93012417    -0.30500
H1483       H  0.94743573  0.62482816  0.91472243     0.10400
C1484       C  0.89116091  0.65057398  0.93009498     0.03600
C1485       C  0.87415227  0.66808817  0.91722096    -0.12800
C1486       C  0.84479565  0.64993551  0.89772787    -0.08500
C1487       C  0.83329987  0.61220664  0.89165014     0.07100
C1488       C  0.85093601  0.59521246  0.90446357    -0.13600
S1489       S  0.92634975  0.67464764  0.95628260    -0.30500
H1490       H  0.88244115  0.69528444  0.92457435     0.11300
S1491       S  0.79704484  0.58466496  0.86692996    -0.27600
H1492       H  0.84255300  0.56696648  0.89954348     0.08600
H1493       H  0.49270525  0.56558941  0.93053879     0.27000
H1494       H  0.93053489  0.70958842  0.95210141     0.21800
H1495       H  0.79189031  0.55017534  0.87454869     0.27100
H1496       H  0.83196190  0.58582663  0.96491806     0.16000
C1497       C  0.84348777  0.76250525  0.92067244    -0.11300
C1498       C  0.88124808  0.78420266  0.91513223     0.15200
C1499       C  0.89898103  0.77030723  0.89794620     0.02100
C1500       C  0.87883577  0.73431218  0.88793811    -0.15700
C1501       C  0.84113808  0.71036552  0.89534644    -0.10500
C1502       C  0.82264332  0.72674812  0.91028036     0.08800
C1503       C  0.90123824  0.82003526  0.92959983     0.09900
S1504       S  0.94750560  0.79658526  0.88882228    -0.24800
H1505       H  0.89351254  0.72404674  0.87534187     0.20100
S1506       S  0.77303687  0.70648646  0.91576636    -0.30500
H1507       H  0.83016026  0.77385079  0.93369073     0.10400
C1508       C  0.89280722  0.84802567  0.92463504     0.03600
C1509       C  0.90819575  0.87923440  0.94187091    -0.12800
C1510       C  0.93212897  0.88316641  0.96380824    -0.08500
C1511       C  0.94115367  0.85534003  0.96835175     0.07100
C1512       C  0.92551304  0.82409738  0.95119377    -0.13600
S1513       S  0.86270736  0.84408679  0.89618055    -0.30500
H1514       H  0.90185599  0.90083625  0.93812142     0.11300
S1515       S  0.47792492  0.86158869  0.99336359    -0.27600
H1516       H  0.93100126  0.80197520  0.95522452     0.08600
H1517       H  0.77215152  0.73936840  0.91844242     0.27000
H1518       H  0.86279126  0.87704101  0.90151239     0.21800
H1519       H  0.48105952  0.83118475  0.98482672     0.27100
H1520       H  0.95047930  0.83128903  0.89095038     0.16000
C1521       C  0.64819112  0.59578339  0.92202959    -0.11300
C1522       C  0.67048634  0.57980673  0.92495458     0.15200
C1523       C  0.65848857  0.54888724  0.94232561     0.02100
C1524       C  0.62597779  0.53629721  0.95800444    -0.15700
C1525       C  0.60440226  0.55336113  0.95643723    -0.10500
C1526       C  0.61495515  0.58261030  0.93727873     0.08800
C1527       C  0.70872070  0.59969593  0.91385149     0.09900
S1528       S  0.68427743  0.52523996  0.94620266    -0.24800
H1529       H  0.61802181  0.51339194  0.97210695     0.20100
S1530       S  0.58653793  0.60319962  0.93168367    -0.30500
H1531       H  0.65771251  0.61956467  0.90861749     0.10400
C1532       C  0.71685109  0.60485928  0.88505756     0.03600
C1533       C  0.75369217  0.62681200  0.87618247    -0.12800
C1534       C  0.78324313  0.64468994  0.89548143    -0.08500
C1535       C  0.77423352  0.63675511  0.92475169     0.07100
C1536       C  0.73736853  0.61504631  0.93322170    -0.13600
S1537       S  0.68039523  0.58240025  0.85958034    -0.30500
H1538       H  0.75895471  0.62879947  0.85393216     0.11300
S1539       S  0.80760935  0.65757411  0.95267758    -0.27600
H1540       H  0.73047320  0.61110104  0.95540658     0.08600
H1541       H  0.60808681  0.62727000  0.91002923     0.27000
H1542       H  0.70296493  0.59516774  0.83538526     0.21800
H1543       H  0.78688078  0.63172963  0.97363543     0.27100
H1544       H  0.70148412  0.53458100  0.91959197     0.16000
loop_ 
_geom_bond_atom_site_label_1 
_geom_bond_atom_site_label_2 
_geom_bond_distance 
_geom_bond_site_symmetry_2 
_ccdc_geom_bond_type 
C1          C304   1.585       .  S
C1          C328   1.582       .  S
C1          C343   1.575       .  S
C1          C376   1.561       .  S
C2          C223   1.582       .  S
C2          C247   1.584       .  S
C2          C280   1.597       .  S
C2          C295   1.572       .  S
C3          C127   1.565       .  S
C3          C160   1.576       .  S
C3          C175   1.582       .  S
C3          C208   1.587       .  S
C4           C64   1.585       .  S
C4           C79   1.578       .  S
C4          C103   1.570       .  S
C4          C136   1.585       .  S
Zn5           O9   1.974       .  S
Zn5         O396   2.032   1_545  S
Zn5         O786   2.041       .  S
Zn5        O1179   2.054   1_545  S
Zn6         O395   1.961       .  S
Zn6          O13   2.011       .  S
Zn6          O17   2.026   1_554  S
Zn6         O397   2.021   1_554  S
Zn7         O781   1.961   1_455  S
Zn7          O12   2.007       .  S
Zn7          O18   2.026   1_554  S
Zn7         O787   2.017   1_454  S
Zn8        O1167   1.943   1_455  S
Zn8          O20   1.999       .  S
Zn8         O402   1.988   1_554  S
Zn8         O791   1.990   1_454  S
O9         Zn392   1.961   1_545  S
O9         Zn779   1.953       .  S
O9        Zn1166   1.942   1_545  S
O10        Zn391   2.032       .  S
O10          C22   1.276       .  A
O11        Zn392   2.025   1_546  S
O11          C23   1.274       .  A
O12          C24   1.273       .  A
O13          C22   1.274       .  A
O14        Zn777   2.032   1_455  S
O14          C24   1.275       .  A
O15        Zn779   1.995   1_556  S
O15          C23   1.270       .  A
O16        Zn394   1.980   1_546  S
O16          C25   1.270       .  A
O17          C26   1.275       .  A
O18          C25   1.274       .  A
O19        Zn780   1.988   1_556  S
O19          C26   1.268       .  A
O20          C27   1.272       .  A
O21       Zn1163   2.047   1_455  S
O21          C27   1.276       .  A
C22         C184   1.481       .  S
C23         C319   1.481       .  S
C24         C151   1.471       .  S
C25         C367   1.481       .  S
C26         C352   1.481       .  S
C27         C199   1.489       .  S
Zn28       O1190   1.962       .  S
Zn28         O44   2.021       .  S
Zn28        O805   2.034       .  S
Zn28        O423   2.021       .  S
Zn29        O418   1.952       .  S
Zn29         O36   2.011       .  S
Zn29         O40   2.025       .  S
Zn29        O420   2.006       .  S
Zn30        O804   1.964   1_545  S
Zn30         O35   2.034       .  S
Zn30         O41   2.016       .  S
Zn30        O810   2.025   1_455  S
Zn31         O32   1.971       .  S
Zn31        O811   2.017   1_565  S
Zn31        O428   2.021       .  S
Zn31       O1201   2.020       .  S
O32       Zn1186   1.961       .  S
O32        Zn415   1.956       .  S
O32        Zn802   1.960   1_565  S
O33        Zn800   2.028       .  S
O33          C45   1.275       .  A
O34        Zn415   2.022   1_545  S
O34          C46   1.273       .  A
O35          C47   1.275       .  A
O36          C45   1.273       .  A
O37        Zn414   2.027   1_545  S
O37          C47   1.274       .  A
O38        Zn802   2.034       .  S
O38          C46   1.276       .  A
O39        Zn803   2.021   1_545  S
O39          C48   1.273       .  A
O40          C49   1.275       .  A
O41          C48   1.273       .  A
O42        Zn417   2.026       .  S
O42          C49   1.274       .  A
O43       Zn1189   2.010       .  S
O43          C50   1.273       .  A
O44          C50   1.274       .  A
C45         C256   1.483       .  S
C46         C232   1.492       .  S
C47         C271   1.487       .  S
C48         C112   1.471       .  S
C49          C55   1.486       .  S
C50          C88   1.481       .  S
C51          C52   1.402       .  A
C51          C56   1.402       .  A
C51          H61   1.084       .  S
C52          C57   1.481       .  S
C52          C53   1.414       .  A
C53          C54   1.400       .  A
C53          S58   1.809       .  S
C54          C55   1.405       .  A
C54          H59   1.084       .  S
C55          C56   1.417       .  A
C56          S60   1.803       .  S
C57          C62   1.400       .  A
C57          C66   1.396       .  A
S58          H74   1.401       .  S
S60          H71   1.407       .  S
C62          C63   1.399       .  A
C62          S67   1.809       .  S
C63          C64   1.424       .  A
C63          H68   1.073       .  S
C64          C65   1.437       .  A
C65          C66   1.407       .  A
C65          S69   1.812       .  S
C66          H70   1.083       .  S
S67          H72   1.407       .  S
S69          H73   1.406       .  S
C75          C76   1.392       .  A
C75          C80   1.402       .  A
C75          H85   1.084       .  S
C76          C81   1.476       .  S
C76          C77   1.402       .  A
C77          C78   1.397       .  A
C77          S82   1.804       .  S
C78          C79   1.422       .  A
C78          H83   1.083       .  S
C79          C80   1.444       .  A
C80          S84   1.813       .  S
C81          C86   1.407       .  A
C81          C90   1.399       .  A
S82          H98   1.404       .  S
S84          H95   1.407       .  S
C86          C87   1.403       .  A
C86          S91   1.806       .  S
C87          C88   1.407       .  A
C87          H92   1.083       .  S
C88          C89   1.417       .  A
C89          C90   1.398       .  A
C89          S93   1.804       .  S
C90          H94   1.084       .  S
S91          H96   1.407       .  S
S93          H97   1.407       .  S
C99         C100   1.394       .  A
C99         C104   1.401       .  A
C99         H109   1.083       .  S
C100        C105   1.480       .  S
C100        C101   1.406       .  A
C101        C102   1.400       .  A
C101        S106   1.806       .  S
C102        C103   1.420       .  A
C102        H107   1.077       .  S
C103        C104   1.438       .  A
C104        S108   1.810       .  S
C105        C110   1.409       .  A
C105        C114   1.402       .  A
S106        H122   1.404       .  S
S108        H119   1.407       .  S
C110        C111   1.406       .  A
C110        S115   1.805       .  S
C111        C112   1.405       .  A
C111        H116   1.083       .  S
C112        C113   1.410       .  A
C113        C114   1.396       .  A
C113        S117   1.805       .  S
C114        H118   1.084       .  S
S115        H120   1.407       .  S
S117        H121   1.407   1_455  S
C123        C124   1.396       .  A
C123        C128   1.406       .  A
C123        H133   1.083       .  S
C124        C129   1.479       .  S
C124        C125   1.403       .  A
C125        C126   1.396       .  A
C125        S130   1.805       .  S
C126        C127   1.418       .  A
C126        H131   1.078       .  S
C127        C128   1.437       .  A
C128        S132   1.812       .  S
C129        C134   1.400       .  A
C129        C138   1.392       .  A
S130        H146   1.405       .  S
S132        H143   1.406       .  S
C134        C135   1.402       .  A
C134        S139   1.807       .  S
C135        C136   1.424       .  A
C135        H140   1.076       .  S
C136        C137   1.436       .  A
C137        C138   1.403       .  A
C137        S141   1.804       .  S
C138        H142   1.083       .  S
S139        H144   1.407       .  S
S141        H145   1.407       .  S
C147        C148   1.402       .  A
C147        C152   1.399       .  A
C147        H157   1.084       .  S
C148        C153   1.485       .  S
C148        C149   1.414       .  A
C149        C150   1.400       .  A
C149        S154   1.799       .  S
C150        C151   1.401       .  A
C150        H155   1.084       .  S
C151        C152   1.413       .  A
C152        S156   1.805   1_455  S
C153        C158   1.400       .  A
C153        C162   1.394       .  A
S154        H170   1.404       .  S
S156        H167   1.406       .  S
C158        C159   1.399       .  A
C158        S163   1.807       .  S
C159        C160   1.425       .  A
C159        H164   1.080       .  S
C160        C161   1.450       .  A
C161        C162   1.405       .  A
C161        S165   1.815       .  S
C162        H166   1.085       .  S
S163        H168   1.407       .  S
S165        H169   1.391       .  S
C171        C172   1.395       .  A
C171        C176   1.404       .  A
C171        H181   1.083       .  S
C172        C177   1.481       .  S
C172        C173   1.404       .  A
C173        C174   1.398       .  A
C173        S178   1.803       .  S
C174        C175   1.420       .  A
C174        H179   1.081       .  S
C175        C176   1.438       .  A
C176        S180   1.811       .  S
C177        C182   1.409       .  A
C177        C186   1.401       .  A
S178        H194   1.406       .  S
S180        H191   1.406       .  S
C182        C183   1.404       .  A
C182        S187   1.806       .  S
C183        C184   1.405       .  A
C183        H188   1.083       .  S
C184        C185   1.417       .  A
C185        C186   1.399       .  A
C185        S189   1.804       .  S
C186        H190   1.084       .  S
S187        H192   1.407       .  S
S189        H193   1.407       .  S
C195        C196   1.403       .  A
C195        C200   1.405       .  A
C195        H205   1.084       .  S
C196        C201   1.482       .  S
C196        C197   1.410       .  A
C197        C198   1.397       .  A
C197        S202   1.805       .  S
C198        C199   1.408       .  A
C198        H203   1.084       .  S
C199        C200   1.418       .  A
C200        S204   1.802       .  S
C201        C206   1.400       .  A
C201        C210   1.394       .  A
S202        H218   1.404       .  S
S204        H215   1.407       .  S
C206        C207   1.400       .  A
C206        S211   1.807       .  S
C207        C208   1.424       .  A
C207        H212   1.076       .  S
C208        C209   1.436       .  A
C209        C210   1.407       .  A
C209        S213   1.798       .  S
C210        H214   1.083       .  S
S211        H216   1.407       .  S
S213        H217   1.407       .  S
C219        C220   1.397       .  A
C219        C224   1.406       .  A
C219        H229   1.085       .  S
C220        C225   1.487       .  S
C220        C221   1.404       .  A
C221        C222   1.394       .  A
C221        S226   1.804       .  S
C222        C223   1.423       .  A
C222        H227   1.083       .  S
C223        C224   1.445       .  A
C224        S228   1.808       .  S
C225        C230   1.410       .  A
C225        C234   1.401       .  A
S226        H242   1.406       .  S
S228        H239   1.397       .  S
C230        C231   1.406       .  A
C230        S235   1.807       .  S
C231        C232   1.408       .  A
C231        H236   1.082       .  S
C232        C233   1.420       .  A
C233        C234   1.400       .  A
C233        S623   1.803       .  S
C234        H238   1.084       .  S
S235       H1012   1.407       .  S
S237        C619   1.803       .  S
S237        H241   1.408       .  S
H240       S1007   1.407   1_455  S
C243        C244   1.399       .  A
C243        C248   1.406       .  A
C243        H253   1.083       .  S
C244        C249   1.484       .  S
C244        C245   1.404       .  A
C245        C246   1.394       .  A
C245        S250   1.805       .  S
C246        C247   1.422       .  A
C246        H251   1.076       .  S
C247        C248   1.436       .  A
C248        S252   1.810       .  S
C249        C254   1.410       .  A
C249        C258   1.403       .  A
S250        H266   1.406       .  S
S252        H263   1.407       .  S
C254        C255   1.401       .  A
C254        S259   1.808       .  S
C255        C256   1.405       .  A
C255        H260   1.083       .  S
C256        C257   1.416       .  A
C257        C258   1.401       .  A
C257       S1033   1.803       .  S
C258        H262   1.084       .  S
S259        H264   1.406       .  S
S261       C1029   1.802   1_455  S
S261        H265   1.407       .  S
C267        C268   1.404       .  A
C267        C272   1.403       .  A
C267        H277   1.084       .  S
C268        C273   1.488       .  S
C268        C269   1.413       .  A
C269        C270   1.402       .  A
C269        S274   1.805       .  S
C270        C271   1.406       .  A
C270        H275   1.084       .  S
C271        C272   1.416       .  A
C272        S276   1.803       .  S
C273        C278   1.401       .  A
C273        C282   1.395       .  A
S274        H290   1.406       .  S
S276        H287   1.407       .  S
C278        C279   1.402       .  A
C278        S283   1.807       .  S
C279        C280   1.426       .  A
C279        H284   1.072       .  S
C280        C281   1.440       .  A
C281        C282   1.407       .  A
C281        S285   1.808       .  S
C282        H286   1.082       .  S
S283        H288   1.407       .  S
S285        H289   1.406       .  S
C291        C292   1.396       .  A
C291        C296   1.401       .  A
C291        H301   1.084       .  S
C292        C297   1.483       .  S
C292        C293   1.403       .  A
C293        C294   1.397       .  A
C293        S298   1.806       .  S
C294        C295   1.422       .  A
C294        H299   1.074       .  S
C295        C296   1.442       .  A
C296        S300   1.809       .  S
C297        C302   1.401       .  A
C297        C306   1.396       .  A
S298        H314   1.406       .  S
S300        H311   1.396       .  S
C302        C303   1.399       .  A
C302        S307   1.809       .  S
C303        C304   1.424       .  A
C303        H308   1.075       .  S
C304        C305   1.435       .  A
C305        C306   1.405       .  A
C305        S309   1.804       .  S
C306        H310   1.082       .  S
S307        H312   1.407       .  S
S309        H313   1.406       .  S
C315        C316   1.401       .  A
C315        C320   1.398       .  A
C315        H325   1.084       .  S
C316        C321   1.481       .  S
C316        C317   1.413       .  A
C317        C318   1.399       .  A
C317        S322   1.805       .  S
C318        C319   1.405       .  A
C318        H323   1.084       .  S
C319        C320   1.418       .  A
C320       S1096   1.803       .  S
C321        C326   1.402       .  A
C321        C330   1.394       .  A
S322        H338   1.406       .  S
S324       C1092   1.801       .  S
S324        H335   1.407       .  S
C326        C327   1.400       .  A
C326        S331   1.809       .  S
C327        C328   1.422       .  A
C327        H332   1.073       .  S
C328        C329   1.439       .  A
C329        C330   1.401       .  A
C329        S333   1.813       .  S
C330        H334   1.083       .  S
S331        H336   1.407       .  S
S333        H337   1.406       .  S
C339        C340   1.393       .  A
C339        C344   1.399       .  A
C339        H349   1.083       .  S
C340        C345   1.480       .  S
C340        C341   1.404       .  A
C341        C342   1.397       .  A
C341        S346   1.803       .  S
C342        C343   1.420       .  A
C342        H347   1.083       .  S
C343        C344   1.445       .  A
C344        S348   1.818       .  S
C345        C350   1.410       .  A
C345        C354   1.400       .  A
S346        H362   1.406       .  S
S348        H359   1.407       .  S
C350        C351   1.400       .  A
C350        S355   1.808       .  S
C351        C352   1.404       .  A
C351        H356   1.083       .  S
C352        C353   1.418       .  A
C353        C354   1.401       .  A
C353       S1129   1.810       .  S
C354        H358   1.083       .  S
S355        H360   1.407       .  S
S357       C1125   1.810       .  S
S357        H361   1.407       .  S
C363        C364   1.402       .  A
C363        C368   1.398       .  A
C363        H373   1.084       .  S
C364        C369   1.473       .  S
C364        C365   1.408       .  A
C365        C366   1.394       .  A
C365        S370   1.805       .  S
C366        C367   1.408       .  A
C366        H371   1.084       .  S
C367        C368   1.416       .  A
C368        S372   1.801       .  S
C369        C374   1.401       .  A
C369        C378   1.392       .  A
S370        H386   1.407       .  S
S372        H383   1.407       .  S
C374        C375   1.401       .  A
C374        S379   1.807       .  S
C375        C376   1.419       .  A
C375        H380   1.075       .  S
C376        C377   1.438       .  A
C377        C378   1.395       .  A
C377        S381   1.811       .  S
C378        H382   1.084       .  S
S379        H384   1.407       .  S
S381        H385   1.407       .  S
C387        C690   1.586       .  S
C387        C714   1.583       .  S
C387        C729   1.576       .  S
C387        C762   1.563       .  S
C388        C609   1.578       .  S
C388        C633   1.583       .  S
C388        C666   1.598       .  S
C388        C681   1.574       .  S
C389        C513   1.565       .  S
C389        C546   1.577       .  S
C389        C561   1.581       .  S
C389        C594   1.588       .  S
C390        C450   1.582       .  S
C390        C465   1.578       .  S
C390        C489   1.571       .  S
C390        C522   1.586       .  S
Zn391       O395   1.972       .  S
Zn391      O1172   2.034       .  S
Zn391       O793   2.050       .  S
Zn392       O399   2.013       .  S
Zn392       O403   2.031   1_554  S
Zn393      O1167   1.961   1_455  S
Zn393       O398   2.011       .  S
Zn393      O1173   2.009   1_454  S
Zn393       O404   2.030   1_554  S
Zn394       O781   1.941   1_465  S
Zn394      O1177   1.983   1_454  S
Zn394       O406   2.000       .  S
O395      Zn1165   1.961       .  S
O395       Zn780   1.942       .  S
O396        C408   1.276       .  A
O397        C409   1.274       .  A
O398        C410   1.274       .  A
O399        C408   1.274       .  A
O400      Zn1163   2.029   1_455  S
O400        C410   1.275       .  A
O401      Zn1165   2.010   1_556  S
O401        C409   1.272       .  A
O402        C411   1.271       .  A
O403        C412   1.275       .  A
O404        C411   1.273       .  A
O405      Zn1166   1.991   1_556  S
O405        C412   1.269       .  A
O406        C413   1.271       .  A
O407       Zn777   2.056   1_465  S
O407        C413   1.277       .  A
C408        C570   1.481       .  S
C409        C705   1.483       .  S
C410        C537   1.473       .  S
C411        C753   1.487       .  S
C412        C738   1.482       .  S
C413        C585   1.488       .  S
Zn414       O804   1.963       .  S
Zn414      O1191   2.035       .  S
Zn414       O430   2.012       .  S
Zn415       O422   2.016       .  S
Zn415       O426   2.026       .  S
Zn416      O1190   1.965       .  S
Zn416       O421   2.037       .  S
Zn416      O1196   2.022   1_455  S
Zn416       O427   2.015       .  S
Zn417       O418   1.969       .  S
Zn417      O1197   2.024       .  S
Zn417       O815   2.018       .  S
O418       Zn800   1.959       .  S
O418      Zn1188   1.959       .  S
O419      Zn1186   2.024       .  S
O419        C431   1.274       .  A
O420        C432   1.272       .  A
O421        C433   1.276       .  A
O422        C431   1.274       .  A
O423        C433   1.274       .  A
O424      Zn1188   2.024       .  S
O424        C432   1.275       .  A
O425      Zn1189   2.011       .  S
O425        C434   1.271       .  A
O426        C435   1.275       .  A
O427        C434   1.273       .  A
O428        C435   1.273       .  A
O429       Zn803   2.019       .  S
O429        C436   1.274       .  A
O430        C436   1.274       .  A
C431        C642   1.482       .  S
C432        C618   1.488       .  S
C433        C657   1.486       .  S
C434        C498   1.469       .  S
C435        C441   1.487       .  S
C436        C474   1.479       .  S
C437        C438   1.402       .  A
C437        C442   1.402       .  A
C437        H447   1.084       .  S
C438        C443   1.481       .  S
C438        C439   1.412       .  A
C439        C440   1.399       .  A
C439        S444   1.805       .  S
C440        C441   1.406       .  A
C440        H445   1.084       .  S
C441        C442   1.418       .  A
C442        S446   1.803       .  S
C443        C448   1.400       .  A
C443        C452   1.396       .  A
S444        H460   1.403       .  S
S446        H457   1.407   1_565  S
C448        C449   1.398       .  A
C448        S453   1.809       .  S
C449        C450   1.423       .  A
C449        H454   1.074       .  S
C450        C451   1.437       .  A
C451        C452   1.407       .  A
C451        S455   1.812       .  S
C452        H456   1.082       .  S
S453        H458   1.407       .  S
S455        H459   1.406       .  S
C461        C462   1.392       .  A
C461        C466   1.402       .  A
C461        H471   1.083       .  S
C462        C467   1.475       .  S
C462        C463   1.401       .  A
C463        C464   1.395       .  A
C463        S468   1.804       .  S
C464        C465   1.423       .  A
C464        H469   1.083       .  S
C465        C466   1.444       .  A
C466        S470   1.813       .  S
C467        C472   1.407       .  A
C467        C476   1.399       .  A
S468        H484   1.405       .  S
S470        H481   1.407       .  S
C472        C473   1.404       .  A
C472        S477   1.806       .  S
C473        C474   1.406       .  A
C473        H478   1.083       .  S
C474        C475   1.416       .  A
C475        C476   1.397       .  A
C475        S479   1.804       .  S
C476        H480   1.084       .  S
S477        H482   1.407       .  S
S479        H483   1.407   1_565  S
C485        C486   1.393       .  A
C485        C490   1.398       .  A
C485        H495   1.085       .  S
C486        C491   1.477       .  S
C486        C487   1.404       .  A
C487        C488   1.399       .  A
C487        S492   1.805       .  S
C488        C489   1.421       .  A
C488        H493   1.076       .  S
C489        C490   1.442       .  A
C490        S494   1.805       .  S
C491        C496   1.408       .  A
C491        C500   1.403       .  A
S492        H508   1.405       .  S
S494        H505   1.397       .  S
C496        C497   1.404       .  A
C496        S501   1.805       .  S
C497        C498   1.403       .  A
C497        H502   1.083       .  S
C498        C499   1.410       .  A
C499        C500   1.397       .  A
C499        S503   1.804       .  S
C500        H504   1.084       .  S
S501        H506   1.407       .  S
S503        H507   1.407   1_455  S
C509        C510   1.397       .  A
C509        C514   1.408       .  A
C509        H519   1.083       .  S
C510        C515   1.479       .  S
C510        C511   1.403       .  A
C511        C512   1.395       .  A
C511        S516   1.805       .  S
C512        C513   1.418       .  A
C512        H517   1.078       .  S
C513        C514   1.437       .  A
C514        S518   1.811       .  S
C515        C520   1.399       .  A
C515        C524   1.392       .  A
S516        H532   1.405       .  S
S518        H529   1.406       .  S
C520        C521   1.401       .  A
C520        S525   1.807       .  S
C521        C522   1.424       .  A
C521        H526   1.076       .  S
C522        C523   1.438       .  A
C523        C524   1.403       .  A
C523        S527   1.807       .  S
C524        H528   1.083       .  S
S525        H530   1.407       .  S
S527        H531   1.406       .  S
C533        C534   1.403       .  A
C533        C538   1.399       .  A
C533        H543   1.084       .  S
C534        C539   1.486       .  S
C534        C535   1.415       .  A
C535        C536   1.400       .  A
C535        S540   1.801       .  S
C536        C537   1.401       .  A
C536        H541   1.084       .  S
C537        C538   1.413       .  A
C538        S542   1.805   1_455  S
C539        C544   1.400       .  A
C539        C548   1.395       .  A
S540        H556   1.403       .  S
S542        H553   1.406       .  S
C544        C545   1.398       .  A
C544        S549   1.808       .  S
C545        C546   1.425       .  A
C545        H550   1.080       .  S
C546        C547   1.450       .  A
C547        C548   1.405       .  A
C547        S551   1.815       .  S
C548        H552   1.085       .  S
S549        H554   1.407       .  S
S551        H555   1.390       .  S
C557        C558   1.395       .  A
C557        C562   1.404       .  A
C557        H567   1.083       .  S
C558        C563   1.480       .  S
C558        C559   1.404       .  A
C559        C560   1.397       .  A
C559        S564   1.803       .  S
C560        C561   1.420       .  A
C560        H565   1.080       .  S
C561        C562   1.438       .  A
C562        S566   1.810       .  S
C563        C568   1.409       .  A
C563        C572   1.400       .  A
S564        H580   1.406       .  S
S566        H577   1.407       .  S
C568        C569   1.405       .  A
C568        S573   1.806       .  S
C569        C570   1.406       .  A
C569        H574   1.083       .  S
C570        C571   1.416       .  A
C571        C572   1.398       .  A
C571        S575   1.804       .  S
C572        H576   1.084       .  S
S573        H578   1.407       .  S
S575        H579   1.407   1_565  S
C581        C582   1.404       .  A
C581        C586   1.404       .  A
C581        H591   1.084       .  S
C582        C587   1.483       .  S
C582        C583   1.413       .  A
C583        C584   1.400       .  A
C583        S588   1.809       .  S
C584        C585   1.407       .  A
C584        H589   1.084       .  S
C585        C586   1.415       .  A
C586        S590   1.802       .  S
C587        C592   1.400       .  A
C587        C596   1.394       .  A
S588        H604   1.402       .  S
S590        H601   1.407   1_565  S
C592        C593   1.402       .  A
C592        S597   1.808       .  S
C593        C594   1.426       .  A
C593        H598   1.076       .  S
C594        C595   1.435       .  A
C595        C596   1.408       .  A
C595        S599   1.799       .  S
C596        H600   1.083       .  S
S597        H602   1.407       .  S
S599        H603   1.406       .  S
C605        C606   1.396       .  A
C605        C610   1.404       .  A
C605        H615   1.085       .  S
C606        C611   1.479       .  S
C606        C607   1.402       .  A
C607        C608   1.391       .  A
C607        S612   1.805       .  S
C608        C609   1.423       .  A
C608        H613   1.083       .  S
C609        C610   1.444       .  A
C610        S614   1.808       .  S
C611        C616   1.408       .  A
C611        C620   1.398       .  A
S612        H628   1.406       .  S
S614        H625   1.396       .  S
C616        C617   1.405       .  A
C616        S621   1.807       .  S
C617        C618   1.409       .  A
C617        H622   1.082       .  S
C618        C619   1.420       .  A
C619        C620   1.396       .  A
C620        H624   1.084       .  S
S621       H1398   1.407       .  S
S623        H627   1.408       .  S
H626       S1393   1.407   1_455  S
C629        C630   1.400       .  A
C629        C634   1.407       .  A
C629        H639   1.082       .  S
C630        C635   1.484       .  S
C630        C631   1.404       .  A
C631        C632   1.394       .  A
C631        S636   1.806       .  S
C632        C633   1.423       .  A
C632        H637   1.076       .  S
C633        C634   1.435       .  A
C634        S638   1.811       .  S
C635        C640   1.410       .  A
C635        C644   1.404       .  A
S636        H652   1.406       .  S
S638        H649   1.406       .  S
C640        C641   1.401       .  A
C640        S645   1.808       .  S
C641        C642   1.404       .  A
C641        H646   1.083       .  S
C642        C643   1.417       .  A
C643        C644   1.402       .  A
C643       S1419   1.803       .  S
C644        H648   1.084       .  S
S645        H650   1.406       .  S
S647       C1415   1.802   1_455  S
S647        H651   1.407       .  S
C653        C654   1.404       .  A
C653        C658   1.403       .  A
C653        H663   1.084       .  S
C654        C659   1.489       .  S
C654        C655   1.413       .  A
C655        C656   1.401       .  A
C655        S660   1.805       .  S
C656        C657   1.406       .  A
C656        H661   1.084       .  S
C657        C658   1.416       .  A
C658        S662   1.803       .  S
C659        C664   1.401       .  A
C659        C668   1.395       .  A
S660        H676   1.406       .  S
S662        H673   1.407       .  S
C664        C665   1.403       .  A
C664        S669   1.808       .  S
C665        C666   1.426       .  A
C665        H670   1.073       .  S
C666        C667   1.439       .  A
C667        C668   1.407       .  A
C667        S671   1.806       .  S
C668        H672   1.083       .  S
S669        H674   1.406       .  S
S671        H675   1.407       .  S
C677        C678   1.395       .  A
C677        C682   1.401       .  A
C677        H687   1.084       .  S
C678        C683   1.486       .  S
C678        C679   1.405       .  A
C679        C680   1.399       .  A
C679        S684   1.806       .  S
C680        C681   1.422       .  A
C680        H685   1.074       .  S
C681        C682   1.443       .  A
C682        S686   1.808       .  S
C683        C688   1.402       .  A
C683        C692   1.396       .  A
S684        H700   1.406       .  S
S686        H697   1.396       .  S
C688        C689   1.400       .  A
C688        S693   1.809       .  S
C689        C690   1.423       .  A
C689        H694   1.076       .  S
C690        C691   1.434       .  A
C691        C692   1.406       .  A
C691        S695   1.803       .  S
C692        H696   1.083       .  S
S693        H698   1.407       .  S
S695        H699   1.406       .  S
C701        C702   1.401       .  A
C701        C706   1.399       .  A
C701        H711   1.084       .  S
C702        C707   1.481       .  S
C702        C703   1.413       .  A
C703        C704   1.399       .  A
C703        S708   1.805       .  S
C704        C705   1.406       .  A
C704        H709   1.084       .  S
C705        C706   1.417       .  A
C706       S1482   1.802       .  S
C707        C712   1.402       .  A
C707        C716   1.394       .  A
S708        H724   1.406       .  S
S710       C1478   1.803       .  S
S710        H721   1.407       .  S
C712        C713   1.400       .  A
C712        S717   1.809       .  S
C713        C714   1.422       .  A
C713        H718   1.074       .  S
C714        C715   1.439       .  A
C715        C716   1.402       .  A
C715        S719   1.813       .  S
C716        H720   1.083       .  S
S717        H722   1.407       .  S
S719        H723   1.406       .  S
C725        C726   1.393       .  A
C725        C730   1.399       .  A
C725        H735   1.083       .  S
C726        C731   1.483       .  S
C726        C727   1.406       .  A
C727        C728   1.400       .  A
C727        S732   1.803       .  S
C728        C729   1.420       .  A
C728        H733   1.083       .  S
C729        C730   1.445       .  A
C730        S734   1.817       .  S
C731        C736   1.411       .  A
C731        C740   1.401       .  A
S732        H748   1.406       .  S
S734        H745   1.407       .  S
C736        C737   1.401       .  A
C736        S741   1.808       .  S
C737        C738   1.404       .  A
C737        H742   1.083       .  S
C738        C739   1.418       .  A
C739        C740   1.403       .  A
C739       S1515   1.810       .  S
C740        H744   1.083       .  S
S741        H746   1.407       .  S
S743       C1511   1.810       .  S
S743        H747   1.407       .  S
C749        C750   1.402       .  A
C749        C754   1.400       .  A
C749        H759   1.084       .  S
C750        C755   1.476       .  S
C750        C751   1.408       .  A
C751        C752   1.394       .  A
C751        S756   1.805       .  S
C752        C753   1.409       .  A
C752        H757   1.083       .  S
C753        C754   1.417       .  A
C754        S758   1.799       .  S
C755        C760   1.401       .  A
C755        C764   1.392       .  A
S756        H772   1.406       .  S
S758        H769   1.407       .  S
C760        C761   1.402       .  A
C760        S765   1.806       .  S
C761        C762   1.420       .  A
C761        H766   1.075       .  S
C762        C763   1.438       .  A
C763        C764   1.395       .  A
C763        S767   1.811       .  S
C764        H768   1.084       .  S
S765        H770   1.407       .  S
S767        H771   1.407       .  S
C773       C1076   1.586       .  S
C773       C1100   1.585       .  S
C773       C1115   1.575       .  S
C773       C1148   1.562       .  S
C774        C995   1.580       .  S
C774       C1019   1.585       .  S
C774       C1052   1.595       .  S
C774       C1067   1.572       .  S
C775        C899   1.565       .  S
C775        C932   1.574       .  S
C775        C947   1.581       .  S
C775        C980   1.587       .  S
C776        C836   1.585       .  S
C776        C851   1.578       .  S
C776        C875   1.567       .  S
C776        C908   1.583       .  S
Zn777       O781   1.974       .  S
Zn777      O1168   2.033   1_545  S
Zn778      O1167   1.960       .  S
Zn778      O1169   2.020   1_554  S
Zn778       O785   2.009       .  S
Zn778       O789   2.024   1_554  S
Zn779       O784   1.995       .  S
Zn779       O790   2.014   1_554  S
Zn780      O1174   1.982   1_554  S
Zn780       O792   1.998       .  S
O781      Zn1164   1.961   1_545  S
O782      Zn1163   2.028       .  S
O782        C794   1.275       .  A
O783      Zn1164   2.021   1_546  S
O783        C795   1.273       .  A
O784        C796   1.271       .  A
O785        C794   1.273       .  A
O786        C796   1.277       .  A
O787        C795   1.272       .  A
O788      Zn1166   1.990   1_546  S
O788        C797   1.271       .  A
O789        C798   1.275       .  A
O790        C797   1.271       .  A
O791        C798   1.269       .  A
O792        C799   1.272       .  A
O793        C799   1.276       .  A
C794        C956   1.479       .  S
C795       C1091   1.484       .  S
C796        C923   1.474       .  S
C797       C1139   1.486       .  S
C798       C1124   1.479       .  S
C799        C971   1.491       .  S
Zn800      O1195   2.019       .  S
Zn800       O816   2.014       .  S
Zn801      O1190   1.958   1_655  S
Zn801      O1192   2.015       .  S
Zn801       O808   2.014       .  S
Zn801       O812   2.025       .  S
Zn802       O807   2.030       .  S
Zn802       O813   2.015       .  S
Zn803       O804   1.974       .  S
Zn803      O1200   2.041   1_455  S
O804      Zn1187   1.955   1_455  S
O805        C817   1.276   1_455  A
O806      Zn1187   2.006   1_545  S
O806        C818   1.272       .  A
O807        C819   1.275       .  A
O808        C817   1.274       .  A
O809      Zn1186   2.013   1_545  S
O809        C819   1.273       .  A
O810        C818   1.275       .  A
O811        C820   1.273       .  A
O812        C821   1.274       .  A
O813        C820   1.274       .  A
O814      Zn1189   2.022   1_655  S
O814        C821   1.274       .  A
O815        C822   1.274       .  A
O816        C822   1.274       .  A
C817       C1028   1.486       .  S
C818       C1004   1.484       .  S
C819       C1043   1.484       .  S
C820        C884   1.473       .  S
C821        C827   1.482       .  S
C822        C860   1.477       .  S
C823        C824   1.402       .  A
C823        C828   1.401       .  A
C823        H833   1.084       .  S
C824        C829   1.481       .  S
C824        C825   1.414       .  A
C825        C826   1.401       .  A
C825        S830   1.808       .  S
C826        C827   1.405       .  A
C826        H831   1.084       .  S
C827        C828   1.416       .  A
C828        S832   1.803       .  S
C829        C834   1.401       .  A
C829        C838   1.395       .  A
S830        H846   1.402       .  S
S832        H843   1.407       .  S
C834        C835   1.401       .  A
C834        S839   1.809       .  S
C835        C836   1.423       .  A
C835        H840   1.074       .  S
C836        C837   1.438       .  A
C837        C838   1.406       .  A
C837        S841   1.811       .  S
C838        H842   1.083       .  S
S839        H844   1.407       .  S
S841        H845   1.407       .  S
C847        C848   1.392       .  A
C847        C852   1.402       .  A
C847        H857   1.083       .  S
C848        C853   1.476       .  S
C848        C849   1.401       .  A
C849        C850   1.396       .  A
C849        S854   1.803       .  S
C850        C851   1.422       .  A
C850        H855   1.083       .  S
C851        C852   1.445       .  A
C852        S856   1.817       .  S
C853        C858   1.409       .  A
C853        C862   1.399       .  A
S854        H870   1.406       .  S
S856        H867   1.407       .  S
C858        C859   1.404       .  A
C858        S863   1.806       .  S
C859        C860   1.405       .  A
C859        H864   1.083       .  S
C860        C861   1.415       .  A
C861        C862   1.397       .  A
C861        S865   1.804       .  S
C862        H866   1.084       .  S
S863        H868   1.407       .  S
S865        H869   1.407       .  S
C871        C872   1.396       .  A
C871        C876   1.398       .  A
C871        H881   1.083       .  S
C872        C877   1.484       .  S
C872        C873   1.406       .  A
C873        C874   1.400       .  A
C873        S878   1.804       .  S
C874        C875   1.420       .  A
C874        H879   1.078       .  S
C875        C876   1.436       .  A
C876        S880   1.810       .  S
C877        C882   1.411       .  A
C877        C886   1.405       .  A
S878        H894   1.406       .  S
S880        H891   1.407       .  S
C882        C883   1.400       .  A
C882        S887   1.808       .  S
C883        C884   1.402       .  A
C883        H888   1.083       .  S
C884        C885   1.413       .  A
C885        C886   1.400       .  A
C885        S889   1.804       .  S
C886        H890   1.084       .  S
S887        H892   1.407       .  S
S889        H893   1.406       .  S
C895        C896   1.396       .  A
C895        C900   1.406       .  A
C895        H905   1.083       .  S
C896        C901   1.478       .  S
C896        C897   1.402       .  A
C897        C898   1.395       .  A
C897        S902   1.806       .  S
C898        C899   1.419       .  A
C898        H903   1.078       .  S
C899        C900   1.437       .  A
C900        S904   1.810       .  S
C901        C906   1.399       .  A
C901        C910   1.392       .  A
S902        H918   1.405       .  S
S904        H915   1.407       .  S
C906        C907   1.402       .  A
C906        S911   1.807       .  S
C907        C908   1.424       .  A
C907        H912   1.077       .  S
C908        C909   1.436       .  A
C909        C910   1.403       .  A
C909        S913   1.805       .  S
C910        H914   1.083       .  S
S911        H916   1.407       .  S
S913        H917   1.406       .  S
C919        C920   1.403       .  A
C919        C924   1.399       .  A
C919        H929   1.084       .  S
C920        C925   1.487       .  S
C920        C921   1.416       .  A
C921        C922   1.400       .  A
C921        S926   1.801       .  S
C922        C923   1.400       .  A
C922        H927   1.084       .  S
C923        C924   1.415       .  A
C924        S928   1.805       .  S
C925        C930   1.402       .  A
C925        C934   1.395       .  A
S926        H942   1.404       .  S
S928        H939   1.407       .  S
C930        C931   1.399       .  A
C930        S935   1.809       .  S
C931        C932   1.425       .  A
C931        H936   1.081       .  S
C932        C933   1.448       .  A
C933        C934   1.404       .  A
C933        S937   1.815       .  S
C934        H938   1.085       .  S
S935        H940   1.407       .  S
S937        H941   1.391       .  S
C943        C944   1.394       .  A
C943        C948   1.403       .  A
C943        H953   1.083       .  S
C944        C949   1.480       .  S
C944        C945   1.404       .  A
C945        C946   1.398       .  A
C945        S950   1.803       .  S
C946        C947   1.420       .  A
C946        H951   1.081       .  S
C947        C948   1.440       .  A
C948        S952   1.813       .  S
C949        C954   1.410       .  A
C949        C958   1.400       .  A
S950        H966   1.406       .  S
S952        H963   1.406       .  S
C954        C955   1.404       .  A
C954        S959   1.806       .  S
C955        C956   1.405       .  A
C955        H960   1.083       .  S
C956        C957   1.416       .  A
C957        C958   1.398       .  A
C957        S961   1.804       .  S
C958        H962   1.084       .  S
S959        H964   1.407       .  S
S961        H965   1.407       .  S
C967        C968   1.403       .  A
C967        C972   1.405       .  A
C967        H977   1.084       .  S
C968        C973   1.483       .  S
C968        C969   1.410       .  A
C969        C970   1.398       .  A
C969        S974   1.806       .  S
C970        C971   1.408       .  A
C970        H975   1.084       .  S
C971        C972   1.418       .  A
C972        S976   1.801       .  S
C973        C978   1.401       .  A
C973        C982   1.393       .  A
S974        H990   1.405       .  S
S976        H987   1.407       .  S
C978        C979   1.402       .  A
C978        S983   1.808       .  S
C979        C980   1.425       .  A
C979        H984   1.075       .  S
C980        C981   1.436       .  A
C981        C982   1.406       .  A
C981        S985   1.798       .  S
C982        H986   1.083       .  S
S983        H988   1.407       .  S
S985        H989   1.407       .  S
C991        C992   1.397       .  A
C991        C996   1.405       .  A
C991       H1001   1.085       .  S
C992        C997   1.485       .  S
C992        C993   1.403       .  A
C993        C994   1.392       .  A
C993        S998   1.805       .  S
C994        C995   1.423       .  A
C994        H999   1.083       .  S
C995        C996   1.444       .  A
C996       S1000   1.809       .  S
C997       C1002   1.411       .  A
C997       C1006   1.401       .  A
S998       H1014   1.406       .  S
S1000      H1011   1.396       .  S
C1002      C1003   1.404       .  A
C1002      S1007   1.807       .  S
C1003      C1004   1.406       .  A
C1003      H1008   1.083       .  S
C1004      C1005   1.418       .  A
C1005      C1006   1.397       .  A
C1005      S1395   1.804       .  S
C1006      H1010   1.084       .  S
S1009      C1391   1.802       .  S
S1009      H1013   1.408       .  S
C1015      C1016   1.399       .  A
C1015      C1020   1.407       .  A
C1015      H1025   1.082       .  S
C1016      C1021   1.485       .  S
C1016      C1017   1.404       .  A
C1017      C1018   1.395       .  A
C1017      S1022   1.805       .  S
C1018      C1019   1.422       .  A
C1018      H1023   1.076       .  S
C1019      C1020   1.437       .  A
C1020      S1024   1.812       .  S
C1021      C1026   1.410       .  A
C1021      C1030   1.403       .  A
S1022      H1038   1.406       .  S
S1024      H1035   1.406       .  S
C1026      C1027   1.403       .  A
C1026      S1031   1.808       .  S
C1027      C1028   1.407       .  A
C1027      H1032   1.083       .  S
C1028      C1029   1.416       .  A
C1029      C1030   1.402       .  A
C1030      H1034   1.084       .  S
S1031      H1036   1.406       .  S
S1033      H1037   1.407       .  S
C1039      C1040   1.403       .  A
C1039      C1044   1.401       .  A
C1039      H1049   1.084       .  S
C1040      C1045   1.484       .  S
C1040      C1041   1.413       .  A
C1041      C1042   1.401       .  A
C1041      S1046   1.805       .  S
C1042      C1043   1.407       .  A
C1042      H1047   1.084       .  S
C1043      C1044   1.415       .  A
C1044      S1048   1.802       .  S
C1045      C1050   1.399       .  A
C1045      C1054   1.394       .  A
S1046      H1062   1.406       .  S
S1048      H1059   1.407       .  S
C1050      C1051   1.400       .  A
C1050      S1055   1.808       .  S
C1051      C1052   1.426       .  A
C1051      H1056   1.072       .  S
C1052      C1053   1.440       .  A
C1053      C1054   1.406       .  A
C1053      S1057   1.807       .  S
C1054      H1058   1.082       .  S
S1055      H1060   1.407       .  S
S1057      H1061   1.406       .  S
C1063      C1064   1.396       .  A
C1063      C1068   1.401       .  A
C1063      H1073   1.084       .  S
C1064      C1069   1.485       .  S
C1064      C1065   1.405       .  A
C1065      C1066   1.398       .  A
C1065      S1070   1.806       .  S
C1066      C1067   1.422       .  A
C1066      H1071   1.074       .  S
C1067      C1068   1.442       .  A
C1068      S1072   1.809       .  S
C1069      C1074   1.402       .  A
C1069      C1078   1.395       .  A
S1070      H1086   1.406       .  S
S1072      H1083   1.395       .  S
C1074      C1075   1.400       .  A
C1074      S1079   1.809       .  S
C1075      C1076   1.423       .  A
C1075      H1080   1.076       .  S
C1076      C1077   1.435       .  A
C1077      C1078   1.405       .  A
C1077      S1081   1.804       .  S
C1078      H1082   1.083       .  S
S1079      H1084   1.407       .  S
S1081      H1085   1.406       .  S
C1087      C1088   1.402       .  A
C1087      C1092   1.400       .  A
C1087      H1097   1.084       .  S
C1088      C1093   1.483       .  S
C1088      C1089   1.412       .  A
C1089      C1090   1.400       .  A
C1089      S1094   1.805       .  S
C1090      C1091   1.406       .  A
C1090      H1095   1.084       .  S
C1091      C1092   1.416       .  A
C1093      C1098   1.402       .  A
C1093      C1102   1.395       .  A
S1094      H1110   1.406       .  S
S1096      H1107   1.407       .  S
C1098      C1099   1.400       .  A
C1098      S1103   1.809       .  S
C1099      C1100   1.423       .  A
C1099      H1104   1.074       .  S
C1100      C1101   1.438       .  A
C1101      C1102   1.404       .  A
C1101      S1105   1.813       .  S
C1102      H1106   1.083       .  S
S1103      H1108   1.407       .  S
S1105      H1109   1.406       .  S
C1111      C1112   1.393       .  A
C1111      C1116   1.400       .  A
C1111      H1121   1.082       .  S
C1112      C1117   1.480       .  S
C1112      C1113   1.404       .  A
C1113      C1114   1.397       .  A
C1113      S1118   1.803       .  S
C1114      C1115   1.420       .  A
C1114      H1119   1.083       .  S
C1115      C1116   1.445       .  A
C1116      S1120   1.819       .  S
C1117      C1122   1.410       .  A
C1117      C1126   1.401       .  A
S1118      H1134   1.406       .  S
S1120      H1131   1.406       .  S
C1122      C1123   1.400       .  A
C1122      S1127   1.808       .  S
C1123      C1124   1.404       .  A
C1123      H1128   1.083       .  S
C1124      C1125   1.417       .  A
C1125      C1126   1.402       .  A
C1126      H1130   1.083       .  S
S1127      H1132   1.407       .  S
S1129      H1133   1.407       .  S
C1135      C1136   1.400       .  A
C1135      C1140   1.399       .  A
C1135      H1145   1.084       .  S
C1136      C1141   1.472       .  S
C1136      C1137   1.406       .  A
C1137      C1138   1.394       .  A
C1137      S1142   1.805       .  S
C1138      C1139   1.409       .  A
C1138      H1143   1.083       .  S
C1139      C1140   1.419       .  A
C1140      S1144   1.799       .  S
C1141      C1146   1.399       .  A
C1141      C1150   1.392       .  A
S1142      H1158   1.406       .  S
S1144      H1155   1.408       .  S
C1146      C1147   1.401       .  A
C1146      S1151   1.806       .  S
C1147      C1148   1.421       .  A
C1147      H1152   1.074       .  S
C1148      C1149   1.438       .  A
C1149      C1150   1.396       .  A
C1149      S1153   1.812       .  S
C1150      H1154   1.083       .  S
S1151      H1156   1.407       .  S
S1153      H1157   1.407       .  S
C1159      C1462   1.584       .  S
C1159      C1486   1.584       .  S
C1159      C1501   1.575       .  S
C1159      C1534   1.561       .  S
C1160      C1381   1.580       .  S
C1160      C1405   1.583       .  S
C1160      C1438   1.595       .  S
C1160      C1453   1.571       .  S
C1161      C1285   1.567       .  S
C1161      C1318   1.578       .  S
C1161      C1333   1.580       .  S
C1161      C1366   1.586       .  S
C1162      C1222   1.587       .  S
C1162      C1237   1.579       .  S
C1162      C1261   1.569       .  S
C1162      C1294   1.583       .  S
Zn1163     O1167   1.972       .  S
Zn1164     O1171   2.003       .  S
Zn1164     O1175   2.031   1_554  S
Zn1165     O1170   2.013       .  S
Zn1165     O1176   2.027   1_554  S
Zn1166     O1178   1.992       .  S
O1168      C1180   1.277       .  A
O1169      C1181   1.273       .  A
O1170      C1182   1.274       .  A
O1171      C1180   1.273       .  A
O1172      C1182   1.275       .  A
O1173      C1181   1.272       .  A
O1174      C1183   1.270       .  A
O1175      C1184   1.275       .  A
O1176      C1183   1.274       .  A
O1177      C1184   1.268       .  A
O1178      C1185   1.272       .  A
O1179      C1185   1.277       .  A
C1180      C1342   1.481       .  S
C1181      C1477   1.482       .  S
C1182      C1309   1.474       .  S
C1183      C1525   1.482       .  S
C1184      C1510   1.478       .  S
C1185      C1357   1.491       .  S
Zn1186     O1202   2.014       .  S
Zn1187     O1194   2.010       .  S
Zn1187     O1198   2.018       .  S
Zn1188     O1193   2.017       .  S
Zn1188     O1199   2.007       .  S
Zn1189     O1190   1.968       .  S
O1191      C1203   1.275   1_455  A
O1192      C1204   1.272       .  A
O1193      C1205   1.273       .  A
O1194      C1203   1.273       .  A
O1195      C1205   1.273       .  A
O1196      C1204   1.275       .  A
O1197      C1206   1.274       .  A
O1198      C1207   1.273       .  A
O1199      C1206   1.272       .  A
O1200      C1207   1.276       .  A
O1201      C1208   1.273       .  A
O1202      C1208   1.274       .  A
C1203      C1414   1.486       .  S
C1204      C1390   1.492       .  S
C1205      C1429   1.481       .  S
C1206      C1270   1.473       .  S
C1207      C1213   1.485       .  S
C1208      C1246   1.479       .  S
C1209      C1210   1.403       .  A
C1209      C1214   1.403       .  A
C1209      H1219   1.084       .  S
C1210      C1215   1.486       .  S
C1210      C1211   1.413       .  A
C1211      C1212   1.401       .  A
C1211      S1216   1.805       .  S
C1212      C1213   1.405       .  A
C1212      H1217   1.084       .  S
C1213      C1214   1.416       .  A
C1214      S1218   1.803   1_565  S
C1215      C1220   1.402       .  A
C1215      C1224   1.395       .  A
S1216      H1232   1.405       .  S
S1218      H1229   1.407       .  S
C1220      C1221   1.402       .  A
C1220      S1225   1.808       .  S
C1221      C1222   1.424       .  A
C1221      H1226   1.074       .  S
C1222      C1223   1.437       .  A
C1223      C1224   1.406       .  A
C1223      S1227   1.811       .  S
C1224      H1228   1.083       .  S
S1225      H1230   1.407       .  S
S1227      H1231   1.406       .  S
C1233      C1234   1.393       .  A
C1233      C1238   1.403       .  A
C1233      H1243   1.084       .  S
C1234      C1239   1.477       .  S
C1234      C1235   1.401       .  A
C1235      C1236   1.397       .  A
C1235      S1240   1.803       .  S
C1236      C1237   1.423       .  A
C1236      H1241   1.083       .  S
C1237      C1238   1.444       .  A
C1238      S1242   1.815       .  S
C1239      C1244   1.408       .  A
C1239      C1248   1.399       .  A
S1240      H1256   1.405       .  S
S1242      H1253   1.407       .  S
C1244      C1245   1.405       .  A
C1244      S1249   1.806       .  S
C1245      C1246   1.406       .  A
C1245      H1250   1.083       .  S
C1246      C1247   1.416       .  A
C1247      C1248   1.397       .  A
C1247      S1251   1.804       .  S
C1248      H1252   1.084       .  S
S1249      H1254   1.407       .  S
S1251      H1255   1.407   1_565  S
C1257      C1258   1.397       .  A
C1257      C1262   1.401       .  A
C1257      H1267   1.083       .  S
C1258      C1263   1.485       .  S
C1258      C1259   1.405       .  A
C1259      C1260   1.399       .  A
C1259      S1264   1.804       .  S
C1260      C1261   1.420       .  A
C1260      H1265   1.077       .  S
C1261      C1262   1.436       .  A
C1262      S1266   1.810       .  S
C1263      C1268   1.411       .  A
C1263      C1272   1.405       .  A
S1264      H1280   1.406       .  S
S1266      H1277   1.407       .  S
C1268      C1269   1.402       .  A
C1268      S1273   1.808       .  S
C1269      C1270   1.403       .  A
C1269      H1274   1.083       .  S
C1270      C1271   1.412       .  A
C1271      C1272   1.400       .  A
C1271      S1275   1.803       .  S
C1272      H1276   1.084       .  S
S1273      H1278   1.407       .  S
S1275      H1279   1.406       .  S
C1281      C1282   1.397       .  A
C1281      C1286   1.407       .  A
C1281      H1291   1.083       .  S
C1282      C1287   1.480       .  S
C1282      C1283   1.403       .  A
C1283      C1284   1.396       .  A
C1283      S1288   1.805       .  S
C1284      C1285   1.419       .  A
C1284      H1289   1.078       .  S
C1285      C1286   1.438       .  A
C1286      S1290   1.812       .  S
C1287      C1292   1.400       .  A
C1287      C1296   1.392       .  A
S1288      H1304   1.405       .  S
S1290      H1301   1.407       .  S
C1292      C1293   1.403       .  A
C1292      S1297   1.807       .  S
C1293      C1294   1.424       .  A
C1293      H1298   1.076       .  S
C1294      C1295   1.437       .  A
C1295      C1296   1.403       .  A
C1295      S1299   1.805       .  S
C1296      H1300   1.083       .  S
S1297      H1302   1.406       .  S
S1299      H1303   1.406       .  S
C1305      C1306   1.404       .  A
C1305      C1310   1.400       .  A
C1305      H1315   1.084       .  S
C1306      C1311   1.488       .  S
C1306      C1307   1.415       .  A
C1307      C1308   1.401       .  A
C1307      S1312   1.801       .  S
C1308      C1309   1.401       .  A
C1308      H1313   1.084       .  S
C1309      C1310   1.413       .  A
C1310      S1314   1.805       .  S
C1311      C1316   1.401       .  A
C1311      C1320   1.396       .  A
S1312      H1328   1.404       .  S
S1314      H1325   1.406       .  S
C1316      C1317   1.399       .  A
C1316      S1321   1.808       .  S
C1317      C1318   1.425       .  A
C1317      H1322   1.080       .  S
C1318      C1319   1.449       .  A
C1319      C1320   1.406       .  A
C1319      S1323   1.814       .  S
C1320      H1324   1.085       .  S
S1321      H1326   1.407       .  S
S1323      H1327   1.391       .  S
C1329      C1330   1.396       .  A
C1329      C1334   1.404       .  A
C1329      H1339   1.083       .  S
C1330      C1335   1.479       .  S
C1330      C1331   1.403       .  A
C1331      C1332   1.397       .  A
C1331      S1336   1.804       .  S
C1332      C1333   1.420       .  A
C1332      H1337   1.081       .  S
C1333      C1334   1.437       .  A
C1334      S1338   1.810       .  S
C1335      C1340   1.408       .  A
C1335      C1344   1.400       .  A
S1336      H1352   1.406       .  S
S1338      H1349   1.407       .  S
C1340      C1341   1.404       .  A
C1340      S1345   1.806       .  S
C1341      C1342   1.405       .  A
C1341      H1346   1.083       .  S
C1342      C1343   1.418       .  A
C1343      C1344   1.398       .  A
C1343      S1347   1.805       .  S
C1344      H1348   1.084       .  S
S1345      H1350   1.407       .  S
S1347      H1351   1.407   1_565  S
C1353      C1354   1.403       .  A
C1353      C1358   1.405       .  A
C1353      H1363   1.084       .  S
C1354      C1359   1.482       .  S
C1354      C1355   1.410       .  A
C1355      C1356   1.397       .  A
C1355      S1360   1.806       .  S
C1356      C1357   1.409       .  A
C1356      H1361   1.084       .  S
C1357      C1358   1.418       .  A
C1358      S1362   1.801       .  S
C1359      C1364   1.400       .  A
C1359      C1368   1.394       .  A
S1360      H1376   1.405       .  S
S1362      H1373   1.407   1_565  S
C1364      C1365   1.400       .  A
C1364      S1369   1.809       .  S
C1365      C1366   1.425       .  A
C1365      H1370   1.075       .  S
C1366      C1367   1.435       .  A
C1367      C1368   1.407       .  A
C1367      S1371   1.800       .  S
C1368      H1372   1.082       .  S
S1369      H1374   1.407       .  S
S1371      H1375   1.406       .  S
C1377      C1378   1.395       .  A
C1377      C1382   1.404       .  A
C1377      H1387   1.085       .  S
C1378      C1383   1.480       .  S
C1378      C1379   1.402       .  A
C1379      C1380   1.393       .  A
C1379      S1384   1.805       .  S
C1380      C1381   1.424       .  A
C1380      H1385   1.083       .  S
C1381      C1382   1.445       .  A
C1382      S1386   1.807       .  S
C1383      C1388   1.407       .  A
C1383      C1392   1.399       .  A
S1384      H1400   1.406       .  S
S1386      H1397   1.397       .  S
C1388      C1389   1.404       .  A
C1388      S1393   1.807       .  S
C1389      C1390   1.410       .  A
C1389      H1394   1.082       .  S
C1390      C1391   1.421       .  A
C1391      C1392   1.398       .  A
C1392      H1396   1.084       .  S
S1395      H1399   1.408       .  S
C1401      C1402   1.399       .  A
C1401      C1406   1.407       .  A
C1401      H1411   1.083       .  S
C1402      C1407   1.485       .  S
C1402      C1403   1.404       .  A
C1403      C1404   1.394       .  A
C1403      S1408   1.805       .  S
C1404      C1405   1.422       .  A
C1404      H1409   1.076       .  S
C1405      C1406   1.436       .  A
C1406      S1410   1.811       .  S
C1407      C1412   1.410       .  A
C1407      C1416   1.403       .  A
S1408      H1424   1.406       .  S
S1410      H1421   1.406       .  S
C1412      C1413   1.402       .  A
C1412      S1417   1.808       .  S
C1413      C1414   1.407       .  A
C1413      H1418   1.083       .  S
C1414      C1415   1.417       .  A
C1415      C1416   1.402       .  A
C1416      H1420   1.084       .  S
S1417      H1422   1.407       .  S
S1419      H1423   1.407       .  S
C1425      C1426   1.402       .  A
C1425      C1430   1.400       .  A
C1425      H1435   1.084       .  S
C1426      C1431   1.482       .  S
C1426      C1427   1.412       .  A
C1427      C1428   1.400       .  A
C1427      S1432   1.805       .  S
C1428      C1429   1.405       .  A
C1428      H1433   1.084       .  S
C1429      C1430   1.415       .  A
C1430      S1434   1.803       .  S
C1431      C1436   1.399       .  A
C1431      C1440   1.394       .  A
S1432      H1448   1.406       .  S
S1434      H1445   1.407       .  S
C1436      C1437   1.400       .  A
C1436      S1441   1.808       .  S
C1437      C1438   1.426       .  A
C1437      H1442   1.072       .  S
C1438      C1439   1.440       .  A
C1439      C1440   1.406       .  A
C1439      S1443   1.808       .  S
C1440      H1444   1.082       .  S
S1441      H1446   1.407       .  S
S1443      H1447   1.406       .  S
C1449      C1450   1.395       .  A
C1449      C1454   1.401       .  A
C1449      H1459   1.084       .  S
C1450      C1455   1.483       .  S
C1450      C1451   1.404       .  A
C1451      C1452   1.397       .  A
C1451      S1456   1.806       .  S
C1452      C1453   1.422       .  A
C1452      H1457   1.074       .  S
C1453      C1454   1.442       .  A
C1454      S1458   1.808       .  S
C1455      C1460   1.402       .  A
C1455      C1464   1.394       .  A
S1456      H1472   1.406       .  S
S1458      H1469   1.396       .  S
C1460      C1461   1.400       .  A
C1460      S1465   1.809       .  S
C1461      C1462   1.423       .  A
C1461      H1466   1.076       .  S
C1462      C1463   1.436       .  A
C1463      C1464   1.403       .  A
C1463      S1467   1.804       .  S
C1464      H1468   1.083       .  S
S1465      H1470   1.407       .  S
S1467      H1471   1.406       .  S
C1473      C1474   1.401       .  A
C1473      C1478   1.399       .  A
C1473      H1483   1.084       .  S
C1474      C1479   1.480       .  S
C1474      C1475   1.412       .  A
C1475      C1476   1.400       .  A
C1475      S1480   1.805       .  S
C1476      C1477   1.406       .  A
C1476      H1481   1.084       .  S
C1477      C1478   1.416       .  A
C1479      C1484   1.401       .  A
C1479      C1488   1.394       .  A
S1480      H1496   1.406       .  S
S1482      H1493   1.407       .  S
C1484      C1485   1.401       .  A
C1484      S1489   1.809       .  S
C1485      C1486   1.423       .  A
C1485      H1490   1.074       .  S
C1486      C1487   1.439       .  A
C1487      C1488   1.403       .  A
C1487      S1491   1.812       .  S
C1488      H1492   1.083       .  S
S1489      H1494   1.407       .  S
S1491      H1495   1.406       .  S
C1497      C1498   1.392       .  A
C1497      C1502   1.398       .  A
C1497      H1507   1.084       .  S
C1498      C1503   1.478       .  S
C1498      C1499   1.404       .  A
C1499      C1500   1.398       .  A
C1499      S1504   1.804       .  S
C1500      C1501   1.420       .  A
C1500      H1505   1.083       .  S
C1501      C1502   1.445       .  A
C1502      S1506   1.816       .  S
C1503      C1508   1.410       .  A
C1503      C1512   1.400       .  A
S1504      H1520   1.406       .  S
S1506      H1517   1.408       .  S
C1508      C1509   1.402       .  A
C1508      S1513   1.807       .  S
C1509      C1510   1.404       .  A
C1509      H1514   1.083       .  S
C1510      C1511   1.416       .  A
C1511      C1512   1.400       .  A
C1512      H1516   1.083       .  S
S1513      H1518   1.407       .  S
S1515      H1519   1.407       .  S
C1521      C1522   1.402       .  A
C1521      C1526   1.403       .  A
C1521      H1531   1.083       .  S
C1522      C1527   1.474       .  S
C1522      C1523   1.408       .  A
C1523      C1524   1.393       .  A
C1523      S1528   1.805       .  S
C1524      C1525   1.407       .  A
C1524      H1529   1.084       .  S
C1525      C1526   1.416       .  A
C1526      S1530   1.807       .  S
C1527      C1532   1.401       .  A
C1527      C1536   1.393       .  A
S1528      H1544   1.407       .  S
S1530      H1541   1.407       .  S
C1532      C1533   1.401       .  A
C1532      S1537   1.807       .  S
C1533      C1534   1.420       .  A
C1533      H1538   1.075       .  S
C1534      C1535   1.437       .  A
C1535      C1536   1.395       .  A
C1535      S1539   1.811       .  S
C1536      H1540   1.083       .  S
S1537      H1542   1.407       .  S
S1539      H1543   1.407       .  S
