geometry optimzed in LAMMPS
_audit_creation_date              2020-11-30 
_audit_creation_method            'lammps2cif' 
_symmetry_space_group_name_H-M    'P1' 
_symmetry_Int_Tables_number       1 
_symmetry_cell_setting            triclinic 
loop_ 
_symmetry_equiv_pos_as_xyz 
  x,y,z 
_cell_length_a                    36.544667265010645 
_cell_length_b                    36.77440492278439 
_cell_length_c                    36.960300525318054 
_cell_angle_alpha                 88.93927172992454 
_cell_angle_beta                  90.07557892441046 
_cell_angle_gamma                 90.35242840673516 
loop_ 
_atom_site_label 
_atom_site_type_symbol 
_atom_site_fract_x 
_atom_site_fract_y 
_atom_site_fract_z 
_atom_site_charge 
O1          O  0.50069647  0.31574146  0.55774681    -0.78930
O2          O  0.42708820  0.24386622  0.44136164    -0.78960
O3          O  0.44737101  0.31928321  0.51134621    -0.78960
O4          O  0.50684602  0.23783266  0.55206914    -0.78910
O5          O  0.43054617  0.30929535  0.45724003    -0.79030
O6          O  0.55786378  0.26809440  0.56760910    -0.78950
O7          O  0.44603757  0.23328923  0.49792649    -0.78930
O8          O  0.49716769  0.36966882  0.52921480    -0.78970
C9          C  0.49731645  0.35090681  0.55838557     1.10760
C10         C  0.41927452  0.23651056  0.47407785     1.10640
C11         C  0.42552228  0.32588524  0.48580077     1.10780
C12         C  0.53063415  0.24852384  0.57633101     1.10660
O13         O  0.57965220  0.27442672  0.49830885    -0.78930
O14         O  0.47886032  0.30351698  0.41717462    -0.79010
O15         O  0.54579184  0.34724556  0.48030516    -0.78940
O16         O  0.50708026  0.21716978  0.43989996    -0.78920
O17         O  0.48806219  0.26813787  0.41352863    -0.78980
O18         O  0.56950656  0.33054071  0.53061840    -0.78940
O19         O  0.56203578  0.21885800  0.49472791    -0.78900
O20         O  0.48571125  0.35334582  0.45124763    -0.78970
Co21       Co  0.53767373  0.28793947  0.52594019     1.51530
Co22       Co  0.46711357  0.26993145  0.45998388     1.51690
Co23       Co  0.49896917  0.33035788  0.49779195     1.51570
Co24       Co  0.50566084  0.23039320  0.49502842     1.51470
O25         O  0.51150787  0.28578470  0.47989842    -1.40870
C26         C  0.58796515  0.24244627  0.49422731     1.10690
C27         C  0.48426424  0.33806831  0.42060162     1.10780
C28         C  0.57015757  0.35072551  0.50326676     1.10710
C29         C  0.50275552  0.23733752  0.41114688     1.10690
O30         O  0.48621984  0.45739441  0.29796678    -0.78930
O31         O  0.44359300  0.50412379  0.26176447    -0.78960
O32         O  0.46291936  0.53334098  0.32316943    -0.78960
O33         O  0.51510774  0.44089550  0.21439291    -0.78910
O34         O  0.43832063  0.57390986  0.28688625    -0.79030
O35         O  0.53631132  0.41490103  0.26729382    -0.78950
O36         O  0.45768140  0.49893711  0.20439643    -0.78930
O37         O  0.51056721  0.48894682  0.34146748    -0.78970
C38         C  0.49276785  0.46112396  0.33104646     1.10760
C39         C  0.43368025  0.49772595  0.23021020     1.10640
C40         C  0.43664727  0.55478985  0.31514414     1.10780
C41         C  0.52304905  0.41186831  0.23562869     1.10660
O42         O  0.57977473  0.46610845  0.24761852    -0.78930
O43         O  0.51145891  0.58590147  0.28582525    -0.79010
O44         O  0.57043142  0.52798411  0.30455281    -0.78940
O45         O  0.52020159  0.55771268  0.19871159    -0.78920
O46         O  0.46889245  0.56595029  0.22385243    -0.78980
O47         O  0.56567613  0.46875434  0.31195064    -0.78940
O48         O  0.57136021  0.50615280  0.20511762    -0.78900
O49         O  0.52256909  0.56810480  0.34320939    -0.78970
Co50       Co  0.53086716  0.46337314  0.26980510     1.51530
Co51       Co  0.47762056  0.54399362  0.27133436     1.51690
Co52       Co  0.51753802  0.53252613  0.30855386     1.51570
Co53       Co  0.51569342  0.50148234  0.20715534     1.51470
O54         O  0.51777495  0.51159889  0.26043183    -1.40870
C55         C  0.59305355  0.48866328  0.22563368     1.10690
C56         C  0.52232209  0.59265612  0.31822105     1.10780
C57         C  0.58178513  0.49871837  0.31871844     1.10710
C58         C  0.49683564  0.58012399  0.21053532     1.10690
O59         O  0.53588734  0.65252570  0.45265026    -0.78930
O60         O  0.57073903  0.78652854  0.49570117    -0.78960
O61         O  0.46494669  0.74905345  0.42064018    -0.78960
O62         O  0.58970117  0.71220588  0.53584308    -0.78910
O63         O  0.51215248  0.78216094  0.44022393    -0.79030
O64         O  0.57756448  0.70401732  0.48069728    -0.78950
O65         O  0.58829664  0.77609510  0.55219408    -0.78930
O66         O  0.52809270  0.71083780  0.43478116    -0.78970
C67         C  0.53476236  0.67731184  0.42746598     1.10760
C68         C  0.59689117  0.78469189  0.51998383     1.10640
C69         C  0.49147034  0.77001574  0.41357778     1.10780
C70         C  0.59973919  0.70046153  0.50635970     1.10660
O71         O  0.54014511  0.66046271  0.53684614    -0.78930
O72         O  0.45535279  0.79449104  0.50130206    -0.79010
O73         O  0.45799408  0.68544369  0.45453606    -0.78940
O74         O  0.52931898  0.74396247  0.57852999    -0.78920
O75         O  0.50898430  0.79566426  0.55621708    -0.78980
O76         O  0.47881419  0.66149943  0.50295200    -0.78940
O77         O  0.54050543  0.71106063  0.57083490    -0.78900
O78         O  0.43977935  0.73991949  0.48781324    -0.78970
Co79       Co  0.52647539  0.68546752  0.49051087     1.51530
Co80       Co  0.51157793  0.78569108  0.49918555     1.51690
Co81       Co  0.48481705  0.73079244  0.46344385     1.51570
Co82       Co  0.55002169  0.74787875  0.53166000     1.51470
O83         O  0.50775468  0.72850663  0.51050079    -1.40870
C84         C  0.53847496  0.67630414  0.56737545     1.10690
C85         C  0.43051219  0.77033728  0.49768419     1.10780
C86         C  0.45283428  0.66464503  0.48104635     1.10710
C87         C  0.51382239  0.77373722  0.58386142     1.10690
O88         O  0.71161230  0.53176766  0.43403508    -0.78930
O89         O  0.78895093  0.58395772  0.55698011    -0.78960
O90         O  0.72193968  0.58000905  0.48071092    -0.78960
O91         O  0.79378062  0.51271929  0.44214603    -0.78910
O92         O  0.72510837  0.58958666  0.53658826    -0.79030
O93         O  0.75379415  0.47412046  0.41598815    -0.78950
O94         O  0.79864233  0.56923292  0.49997291    -0.78930
O95         O  0.66039812  0.54795854  0.46205321    -0.78970
C96         C  0.67646048  0.53773131  0.43347370     1.10760
C97         C  0.79712714  0.59420385  0.52495818     1.10640
C98         C  0.71623994  0.60120740  0.50609753     1.10780
C99         C  0.77953119  0.49703471  0.41308215     1.10660
O100        O  0.75096146  0.44136068  0.47824816    -0.78930
O101        O  0.72076926  0.53777386  0.57411720    -0.79010
O102        O  0.67084458  0.48767159  0.50151086    -0.78940
O103        O  0.80479765  0.50499907  0.55964813    -0.78920
O104        O  0.75308973  0.52559919  0.58126043    -0.78980
O105        O  0.69391636  0.46120016  0.45520126    -0.78940
O106        O  0.80213926  0.45385132  0.50430078    -0.78900
O107        O  0.67366624  0.54482647  0.53612327    -0.78970
Co108      Co  0.73854830  0.48918069  0.46024453     1.51530
Co109      Co  0.75908528  0.54797241  0.53502797     1.51690
Co110      Co  0.69826869  0.53182877  0.49081682     1.51570
Co111      Co  0.79616005  0.51014996  0.50188564     1.51470
O112        O  0.73901475  0.50776927  0.51029984    -1.40870
C113        C  0.77870320  0.43037594  0.49398608     1.10690
C114        C  0.68600861  0.53891373  0.56779012     1.10780
C115        C  0.67101661  0.46201174  0.48000034     1.10710
C116        C  0.78263920  0.50910403  0.58697546     1.10690
O117        O  0.48642310  0.44608094  0.70226973    -0.78930
O118        O  0.58736367  0.52368427  0.73693570    -0.78960
O119        O  0.54026033  0.53954345  0.65861940    -0.78960
O120        O  0.51542355  0.45221893  0.78799537    -0.78910
O121        O  0.57874259  0.53707744  0.70613672    -0.79030
O122        O  0.49861313  0.43673034  0.73377453    -0.78950
O123        O  0.57009170  0.50584346  0.79036439    -0.78930
O124        O  0.48880343  0.48736396  0.65651864    -0.78970
C125        C  0.48959478  0.45450043  0.66838824     1.10760
C126        C  0.59617328  0.50942249  0.76665205     1.10640
C127        C  0.57238550  0.53638467  0.67174310     1.10780
C128        C  0.51321110  0.42791856  0.76334312     1.10660
O129        O  0.43805128  0.45364324  0.76786673    -0.78930
O130        O  0.54789483  0.58798175  0.71095210    -0.79010
O131        O  0.44193248  0.53471512  0.70189551    -0.78940
O132        O  0.50919628  0.56823629  0.78549698    -0.78920
O133        O  0.56718213  0.58192344  0.77444593    -0.78980
O134        O  0.43406792  0.47822674  0.70433641    -0.78940
O135        O  0.45161398  0.51022098  0.78341956    -0.78900
O136        O  0.49094119  0.58428719  0.70298173    -0.78970
Co137      Co  0.47344858  0.48106183  0.74175130     1.51530
Co138      Co  0.54184239  0.54738142  0.74561755     1.51690
Co139      Co  0.49110734  0.53571672  0.68183760     1.51570
Co140      Co  0.51132233  0.50954299  0.78317923     1.51470
O141        O  0.51319750  0.51031101  0.72518534    -1.40870
C142        C  0.42699561  0.48456661  0.77770876     1.10690
C143        C  0.51981466  0.60158564  0.69789440     1.10780
C144        C  0.42457320  0.50802751  0.69117243     1.10710
C145        C  0.53521611  0.59281620  0.78216409     1.10690
O146        O  0.34557468  0.48062757  0.47879669    -0.78930
O147        O  0.21544942  0.50920998  0.43396954    -0.78960
O148        O  0.27072833  0.43958904  0.50885301    -0.78960
O149        O  0.29631337  0.55304082  0.42021041    -0.78910
O150        O  0.21634116  0.45630154  0.49040141    -0.79030
O151        O  0.34696221  0.54705910  0.45455459    -0.78950
O152        O  0.26386438  0.53908782  0.41302607    -0.78930
O153        O  0.30560617  0.44663053  0.50869204    -0.78970
C154        C  0.33485961  0.44995344  0.48967167     1.10760
C155        C  0.23725288  0.51800439  0.40716866     1.10640
C156        C  0.23928103  0.43091151  0.49754366     1.10780
C157        C  0.33123790  0.55148819  0.42402587     1.10660
O158        O  0.30953010  0.57063631  0.52055349    -0.78930
O159        O  0.22768729  0.51429816  0.55026752    -0.79010
O160        O  0.32351435  0.49646414  0.55224051    -0.78940
O161        O  0.23252142  0.59473861  0.44141457    -0.78920
O162        O  0.22039472  0.57125637  0.49581336    -0.78980
O163        O  0.36868043  0.52851845  0.52633900    -0.78940
O164        O  0.29735838  0.59469903  0.46907633    -0.78900
O165        O  0.26160200  0.46761875  0.56921439    -0.78970
Co166      Co  0.32561783  0.52445021  0.49910066     1.51530
Co167      Co  0.22313619  0.51277399  0.49139277     1.51690
Co168      Co  0.27500835  0.48923435  0.52541846     1.51570
Co169      Co  0.26025176  0.55607330  0.46092148     1.51470
O170        O  0.27919216  0.51204801  0.47947219    -1.40870
C171        C  0.31359461  0.59695042  0.49881193     1.10690
C172        C  0.24140114  0.49390032  0.57663018     1.10780
C173        C  0.35595930  0.51029118  0.55312511     1.10710
C174        C  0.22336364  0.59950110  0.47389870     1.10690
O175        O  0.87559051  0.51888276  0.00581162    -0.78930
O176        O  0.73053764  0.50999910  0.05571063    -0.78960
O177        O  0.78174807  0.58230800  0.95281765    -0.78960
O178        O  0.81161869  0.46543911  0.07153494    -0.78910
O179        O  0.73802237  0.56203642  0.99188602    -0.79030
O180        O  0.81671282  0.51791737  0.04979797    -0.78950
O181        O  0.74400516  0.45557442  0.07883763    -0.78930
O182        O  0.83102282  0.56000439  0.00157713    -0.78970
C183        C  0.86545284  0.55172482  0.00514849     1.10760
C184        C  0.73411114  0.48780734  0.08389182     1.10640
C185        C  0.75568352  0.58866468  0.97433710     1.10780
C186        C  0.82569415  0.49613550  0.07406448     1.10660
O187        O  0.84660880  0.44959133  0.01412048    -0.78930
O188        O  0.71698389  0.49762016  0.94295501    -0.79010
O189        O  0.83231515  0.53216641  0.93286697    -0.78940
O190        O  0.75957359  0.42307320  0.02184536    -0.78920
O191        O  0.70963030  0.44783994  0.00010921    -0.78980
O192        O  0.84304422  0.47919237  0.95474626    -0.78940
O193        O  0.79307769  0.42336814  0.02542391    -0.78900
O194        O  0.76851783  0.52087008  0.92470554    -0.78970
Co195      Co  0.82933686  0.49879537  0.00080340     1.51530
Co196      Co  0.72745894  0.50351117  0.99726064     1.51690
Co197      Co  0.79197299  0.53644448  0.96808130     1.51570
Co198      Co  0.76898709  0.47067154  0.03748131     1.51470
O199        O  0.78204964  0.48711955  0.99002946    -1.40870
C200        C  0.82647594  0.42158902  0.01561152     1.10690
C201        C  0.73911868  0.50586805  0.91754946     1.10780
C202        C  0.84811513  0.50217268  0.93026258     1.10710
C203        C  0.72842267  0.41900035  0.00810371     1.10690
O204        O  0.98067619  0.46544204  0.82371928    -0.78930
O205        O  0.05893505  0.60691575  0.72604471    -0.78960
O206        O  0.03080613  0.57119334  0.83009326    -0.78960
O207        O  0.95624095  0.52024195  0.72040218    -0.78910
O208        O  0.00706959  0.59375624  0.77914265    -0.79030
O209        O  0.95540125  0.47680785  0.76128099    -0.78950
O210        O  0.01110558  0.57355537  0.70498678    -0.78930
O211        O  0.98641199  0.52197502  0.83411278    -0.78970
C212        C  0.96923591  0.49310627  0.83856091     1.10760
C213        C  0.02854977  0.60542126  0.70970898     1.10640
C214        C  0.01219471  0.59523532  0.81279687     1.10780
C215        C  0.93810827  0.49917112  0.74130264     1.10660
O216        O  0.00372357  0.42485973  0.77391461    -0.78930
O217        O  0.08213367  0.58041478  0.78885962    -0.79010
O218        O  0.05355763  0.49940926  0.85752512    -0.78940
O219        O  0.06492279  0.49972830  0.70737588    -0.78920
O220        O  0.08690579  0.54790998  0.72987131    -0.78980
O221        O  0.05494017  0.46288325  0.80953547    -0.78940
O222        O  0.00673643  0.45297099  0.71892633    -0.78900
O223        O  0.08660087  0.52292528  0.79700652    -0.78970
Co224      Co  0.00824061  0.47281446  0.77885576     1.51530
Co225      Co  0.04431038  0.56762244  0.75240592     1.51690
Co226      Co  0.03573822  0.51990956  0.81445885     1.51570
Co227      Co  0.01067415  0.51307355  0.71516594     1.51470
O228        O  0.01663109  0.52488978  0.76900381    -1.40870
C229        C  0.00487605  0.42320802  0.73999906     1.10690
C230        C  0.10022294  0.55391238  0.80087489     1.10780
C231        C  0.05875101  0.46783086  0.84432338     1.10710
C232        C  0.09247017  0.51847444  0.71604495     1.10690
O233        O  0.21193551  0.53004211  0.93044109    -0.78930
O234        O  0.29573046  0.57685046  0.04906673    -0.78960
O235        O  0.22524018  0.57698030  0.97516127    -0.78960
O236        O  0.28537910  0.50515223  0.93523115    -0.78910
O237        O  0.23103648  0.58858402  0.03044024    -0.79030
O238        O  0.24326747  0.46500348  0.91588304    -0.78950
O239        O  0.29960017  0.56232401  0.99158945    -0.78930
O240        O  0.15987824  0.55160823  0.95488727    -0.78970
C241        C  0.17972702  0.54455531  0.92726868     1.10760
C242        C  0.30230304  0.58701835  0.01681119     1.10640
C243        C  0.22340816  0.59979115  0.99951018     1.10780
C244        C  0.26938159  0.48673703  0.90899971     1.10660
O245        O  0.23563211  0.43835554  0.98262502    -0.78930
O246        O  0.22445681  0.53866705  0.06859058    -0.79010
O247        O  0.16209809  0.49229494  0.00033229    -0.78940
O248        O  0.30269101  0.49678913  0.05113380    -0.78920
O249        O  0.25513168  0.52334083  0.07495669    -0.78980
O250        O  0.18054324  0.46374209  0.95402810    -0.78940
O251        O  0.29269316  0.44722645  0.99492713    -0.78900
O252        O  0.17489974  0.54982803  0.03393854    -0.78970
Co253      Co  0.22964349  0.48492808  0.95918546     1.51530
Co254      Co  0.26099175  0.54437401  0.02841895     1.51690
Co255      Co  0.19503106  0.53284178  0.98698461     1.51570
Co256      Co  0.29114511  0.50342268  0.99407284     1.51470
O257        O  0.23426670  0.50640036  0.00655344    -1.40870
C258        C  0.26550055  0.42571051  0.99183756     1.10690
C259        C  0.18961494  0.54105242  0.06427103     1.10780
C260        C  0.15990944  0.46496605  0.98086015     1.10710
C261        C  0.28245454  0.50323141  0.07933044     1.10690
O262        O  0.96003555  0.55652786  0.17245448    -0.78930
O263        O  0.02407674  0.43273317  0.23437384    -0.78960
O264        O  0.98879216  0.46752238  0.15898580    -0.78960
O265        O  0.95301619  0.50824849  0.28361094    -0.78910
O266        O  0.02297598  0.43828433  0.19960492    -0.79030
O267        O  0.93749683  0.53969507  0.23507860    -0.78950
O268        O  0.00568546  0.45293174  0.28635541    -0.78930
O269        O  0.97711834  0.50231235  0.15180025    -0.78970
C270        C  0.95508822  0.52941710  0.15177669     1.10760
C271        C  0.01057443  0.42599538  0.26499455     1.10640
C272        C  0.99855279  0.43789055  0.17380856     1.10780
C273        C  0.92850675  0.52089771  0.26208024     1.10660
O274        O  0.97467407  0.60003833  0.23366408    -0.78930
O275        O  0.08043244  0.48869967  0.19100995    -0.79010
O276        O  0.02603411  0.54742467  0.15116713    -0.78940
O277        O  0.06878493  0.51117710  0.27304935    -0.78920
O278        O  0.08354019  0.45739643  0.25160383    -0.78980
O279        O  0.03374466  0.57443730  0.20161237    -0.78940
O280        O  0.00981982  0.56917055  0.27486308    -0.78900
O281        O  0.05411253  0.48726358  0.13717665    -0.78970
Co282      Co  0.98603021  0.55425231  0.22040564     1.51530
Co283      Co  0.04281338  0.48093730  0.23119650     1.51690
Co284      Co  0.02495880  0.50032741  0.17704094     1.51570
Co285      Co  0.00889112  0.51007429  0.27593653     1.51470
O286        O  0.99900957  0.50554508  0.22042496    -1.40870
C287        C  0.99572786  0.59957856  0.26115717     1.10690
C288        C  0.08247750  0.48873816  0.15660720     1.10780
C289        C  0.03751772  0.57451557  0.16775173     1.10710
C290        C  0.09376780  0.48663562  0.26562915     1.10690
O291        O  0.02337512  0.32492372  0.94425397    -0.78930
O292        O  0.07001942  0.27475976  0.99306274    -0.78960
O293        O  0.05685501  0.33992624  0.00298911    -0.78960
O294        O  0.00644038  0.22496086  0.94332435    -0.78910
O295        O  0.08290702  0.31689167  0.05270753    -0.79030
O296        O  0.98568636  0.27380328  0.91018502    -0.78950
O297        O  0.05774267  0.21774472  0.00348777    -0.78930
O298        O  0.00049857  0.37328834  0.97176177    -0.78970
C299        C  0.01873711  0.35986919  0.94574304     1.10760
C300        C  0.08019496  0.24245778  0.99416305     1.10640
C301        C  0.08177556  0.34061349  0.02743871     1.10780
C302        C  0.00056104  0.24281307  0.91174303     1.10660
O303        O  0.94402807  0.25062596  0.95927028    -0.78930
O304        O  0.01283133  0.30690807  0.07583923    -0.79010
O305        O  0.94961572  0.32790406  0.00648096    -0.78940
O306        O  0.00072073  0.21949759  0.06042988    -0.78920
O307        O  0.05194975  0.24882107  0.06609943    -0.78980
O308        O  0.94459372  0.31745512  0.95056467    -0.78940
O309        O  0.94851132  0.22172308  0.00943379    -0.78900
O310        O  0.99457212  0.35478750  0.04630985    -0.78970
Co311      Co  0.98705797  0.28368616  0.95746940     1.51530
Co312      Co  0.04134036  0.29169358  0.03453322     1.51690
Co313      Co  0.00126253  0.33005739  0.00062215     1.51570
Co314      Co  0.00269355  0.22313824  0.00411581     1.51470
O315        O  0.99769846  0.27819167  0.01135398    -1.40870
C316        C  0.92874674  0.23723406  0.98644171     1.10690
C317        C  0.99679764  0.33678473  0.07536298     1.10780
C318        C  0.92998369  0.32695576  0.97946305     1.10710
C319        C  0.02505110  0.23321920  0.08135225     1.10690
O320        O  0.04830465  0.71659795  0.06142417    -0.78930
O321        O  0.09535302  0.77756418  0.94650829    -0.78960
O322        O  0.08181322  0.65676533  0.97755184    -0.78960
O323        O  0.01566613  0.78630233  0.05779341    -0.78910
O324        O  0.09893256  0.71432408  0.97195040    -0.79030
O325        O  0.98388168  0.73924718  0.08317325    -0.78950
O326        O  0.07712692  0.78933755  0.00213758    -0.78930
O327        O  0.04799411  0.66587504  0.03397203    -0.78970
C328        C  0.05481760  0.68297144  0.06204995     1.10760
C329        C  0.10375829  0.78609148  0.97839994     1.10640
C330        C  0.10641018  0.68082604  0.97463159     1.10780
C331        C  0.00059434  0.76930637  0.08623927     1.10660
O332        O  0.95127407  0.73838714  0.02123829    -0.78930
O333        O  0.04361477  0.71568749  0.92439337    -0.79010
O334        O  0.00205817  0.66019234  0.98694932    -0.78940
O335        O  0.01421826  0.79890829  0.94046581    -0.78920
O336        O  0.03958299  0.75003810  0.91959786    -0.78980
O337        O  0.98028590  0.67943547  0.03968611    -0.78940
O338        O  0.96091899  0.79154044  0.99574797    -0.78900
O339        O  0.01638034  0.66912341  0.95303589    -0.78970
Co340      Co  0.99993806  0.72983337  0.03846630     1.51530
Co341      Co  0.05689956  0.74972361  0.96765097     1.51690
Co342      Co  0.04663902  0.69222749  0.98789676     1.51570
Co343      Co  0.01732335  0.78814559  0.99822846     1.51470
O344        O  0.01455375  0.73177739  0.99096432    -1.40870
C345        C  0.93883268  0.76644337  0.00644944     1.10690
C346        C  0.02441830  0.68564209  0.92376224     1.10780
C347        C  0.97880323  0.65801983  0.01305565     1.10710
C348        C  0.02220179  0.77873753  0.91304492     1.10690
O349        O  0.56890593  0.83320690  0.95600964    -0.78930
O350        O  0.50495013  0.76707302  0.08318099    -0.78960
O351        O  0.48586774  0.84782194  0.04045734    -0.78960
O352        O  0.57459475  0.72020656  0.00502659    -0.78910
O353        O  0.49096311  0.79942820  0.07787076    -0.79030
O354        O  0.59037770  0.77347911  0.98389905    -0.78950
O355        O  0.52255667  0.71545132  0.06000812    -0.78930
O356        O  0.54392187  0.85446581  0.00352697    -0.78970
C357        C  0.56769190  0.85740732  0.97931788     1.10760
C358        C  0.51908633  0.73626978  0.08785097     1.10640
C359        C  0.48966694  0.83420674  0.07221367     1.10780
C360        C  0.59924195  0.74366422  0.99771651     1.10660
O361        O  0.55870770  0.77122176  0.91950050    -0.78930
O362        O  0.44040584  0.79560475  0.04051642    -0.79010
O363        O  0.48304515  0.86199500  0.96454088    -0.78940
O364        O  0.46055019  0.72540910  0.00132259    -0.78920
O365        O  0.44630517  0.73165117  0.05881818    -0.78980
O366        O  0.49855876  0.81031742  0.93654573    -0.78940
O367        O  0.51786525  0.73201117  0.94437070    -0.78900
O368        O  0.45157587  0.80036020  0.98505313    -0.78970
Co369      Co  0.54289686  0.78658459  0.96387972     1.51530
Co370      Co  0.48261480  0.76276222  0.03755120     1.51690
Co371      Co  0.49991615  0.82521601  0.99419287     1.51570
Co372      Co  0.51918799  0.72747648  0.00320798     1.51470
O373        O  0.52321132  0.78431403  0.01349859    -1.40870
C374        C  0.53511797  0.74621730  0.91595473     1.10690
C375        C  0.42965652  0.80576011  0.01020806     1.10780
C376        C  0.48522195  0.84320310  0.93593199     1.10710
C377        C  0.43582883  0.72504339  0.02688368     1.10690
O378        O  0.55658267  0.02316488  0.84109314    -0.78930
O379        O  0.52125634  0.07075766  0.70782670    -0.78960
O380        O  0.59067850  0.99714569  0.76406657    -0.78960
O381        O  0.49686995  0.09419108  0.79366728    -0.78910
O382        O  0.57347001  0.01551700  0.71090163    -0.79030
O383        O  0.50036372  0.06017909  0.84452122    -0.78950
O384        O  0.50489794  0.09707986  0.75844374    -0.78930
O385        O  0.57448520  0.97159701  0.82286408    -0.78970
C386        C  0.58088068  0.99986374  0.83998617     1.10760
C387        C  0.51882630  0.09955195  0.72740157     1.10640
C388        C  0.59883090  0.00932298  0.73386906     1.10780
C389        C  0.50110560  0.09129113  0.82845851     1.10660
O390        O  0.45775182  0.00384722  0.80589405    -0.78930
O391        O  0.51608028  0.95513778  0.72756011    -0.79010
O392        O  0.50137513  0.95295456  0.80427316    -0.78940
O393        O  0.44187922  0.07038284  0.73497130    -0.78920
O394        O  0.45874502  0.01356912  0.72436452    -0.78980
O395        O  0.49868895  0.97793735  0.85930206    -0.78940
O396        O  0.44565878  0.05942955  0.79972224    -0.78900
O397        O  0.55900425  0.93291373  0.76506244    -0.78970
Co398      Co  0.50897418  0.01171615  0.82165119     1.51530
Co399      Co  0.51782967  0.01464526  0.72176807     1.51690
Co400      Co  0.54438127  0.97821823  0.77891174     1.51570
Co401      Co  0.48206116  0.05132579  0.76146169     1.51470
O402        O  0.52581329  0.02843335  0.77694542    -1.40870
C403        C  0.43821762  0.02986885  0.81428547     1.10690
C404        C  0.53465276  0.92739844  0.74154712     1.10780
C405        C  0.49406485  0.95068324  0.83845243     1.10710
C406        C  0.43293315  0.03818290  0.72644991     1.10690
O407        O  0.48293726  0.22199021  0.94448991    -0.78930
O408        O  0.53561401  0.22619489  0.07435182    -0.78960
O409        O  0.57284263  0.22497973  0.96476820    -0.78960
O410        O  0.45329899  0.21910762  0.02972461    -0.78910
O411        O  0.58834908  0.22611043  0.02424795    -0.79030
O412        O  0.45943274  0.21684065  0.97164355    -0.78950
O413        O  0.47601707  0.22532985  0.05780693    -0.78930
O414        O  0.54318953  0.22242092  0.93915007    -0.78970
C415        C  0.51220544  0.20895844  0.92996012     1.10760
C416        C  0.50366678  0.21278336  0.07613307     1.10640
C417        C  0.59043194  0.21239747  0.99289784     1.10780
C418        C  0.44705112  0.20223566  0.00063333     1.10660
O419        O  0.42852149  0.28005930  0.96431187    -0.78930
O420        O  0.58982125  0.30279713  0.02152587    -0.79010
O421        O  0.55265047  0.28744153  0.91496372    -0.78940
O422        O  0.47659145  0.28352016  0.07471652    -0.78920
O423        O  0.53252825  0.30271708  0.07184789    -0.78980
O424        O  0.49260401  0.28044903  0.92130147    -0.78940
O425        O  0.42315069  0.28172536  0.02417588    -0.78900
O426        O  0.59503894  0.28134012  0.96792152    -0.78970
Co427      Co  0.47963908  0.26804199  0.97557916     1.51530
Co428      Co  0.55988842  0.26464567  0.04638112     1.51690
Co429      Co  0.54318060  0.27170053  0.96226292     1.51570
Co430      Co  0.47489331  0.26954681  0.02327987     1.51470
O431        O  0.52404594  0.25486060  0.00631417    -1.40870
C432        C  0.40839343  0.28213226  0.99266922     1.10690
C433        C  0.61005668  0.29319550  0.99573513     1.10780
C434        C  0.52123495  0.28554015  0.90094919     1.10710
C435        C  0.50515584  0.29346663  0.09086239     1.10690
O436        O  0.49836119  0.98430442  0.15306896    -0.78930
O437        O  0.45656620  0.99717613  0.29718228    -0.78960
O438        O  0.54018862  0.91697938  0.22976275    -0.78960
O439        O  0.41967811  0.05967648  0.21343614    -0.78910
O440        O  0.51582673  0.93986653  0.28176297    -0.79030
O441        O  0.44409295  0.01906059  0.17832712    -0.78950
O442        O  0.44104368  0.99302233  0.24148549    -0.78930
O443        O  0.48301015  0.95093642  0.19981218    -0.78970
C444        C  0.48685384  0.95420264  0.16604127     1.10760
C445        C  0.43138520  0.99212570  0.27343483     1.10640
C446        C  0.52673442  0.91211188  0.26127749     1.10780
C447        C  0.41664571  0.03787654  0.18802145     1.10660
O448        O  0.49188045  0.06031069  0.14418057    -0.78930
O449        O  0.56994379  0.00575588  0.28860104    -0.79010
O450        O  0.55854538  0.97409041  0.18002863    -0.78940
O451        O  0.46314952  0.06254327  0.27063335    -0.78920
O452        O  0.51640099  0.05573112  0.29401935    -0.78980
O453        O  0.55195138  0.03404206  0.17868124    -0.78940
O454        O  0.48882671  0.08321524  0.19985729    -0.78900
O455        O  0.57869493  0.97366016  0.24131809    -0.78970
Co456      Co  0.49936188  0.02856877  0.18319574     1.51530
Co457      Co  0.51394789  0.00008769  0.28780815     1.51690
Co458      Co  0.52859970  0.96457173  0.22461947     1.51570
Co459      Co  0.46592761  0.03767271  0.22445099     1.51470
O460        O  0.51186480  0.01178762  0.23287491    -1.40870
C461        C  0.49189878  0.08753700  0.16507009     1.10690
C462        C  0.59182774  0.99216593  0.26606663     1.10780
C463        C  0.56869186  0.00577196  0.16930040     1.10710
C464        C  0.49194090  0.07716250  0.28168889     1.10690
O465        O  0.33600873  0.96463984  0.06289392    -0.78930
O466        O  0.28272503  0.08771031  0.98875334    -0.78960
O467        O  0.36764062  0.04515696  0.98194284    -0.78960
O468        O  0.22788323  0.00948775  0.05615865    -0.78910
O469        O  0.31863704  0.08160689  0.98086325    -0.79030
O470        O  0.27858199  0.98738304  0.07573493    -0.78950
O471        O  0.22887336  0.06308234  0.00111963    -0.78930
O472        O  0.36075622  0.01247895  0.03983240    -0.78970
C473        C  0.35414317  0.99322150  0.06690123     1.10760
C474        C  0.25012069  0.09134795  0.99931314     1.10640
C475        C  0.35368983  0.07692197  0.98395606     1.10780
C476        C  0.24950279  0.00217127  0.08263722     1.10660
O477        O  0.27680278  0.92315413  0.04646733    -0.78930
O478        O  0.32210515  0.04275688  0.93067468    -0.79010
O479        O  0.37888744  0.96330856  0.98855101    -0.78940
O480        O  0.24301811  0.00669029  0.94100143    -0.78920
O481        O  0.25863511  0.06337869  0.92667133    -0.78980
O482        O  0.32154974  0.94133567  0.99126049    -0.78940
O483        O  0.24392336  0.94764631  0.00049143    -0.78900
O484        O  0.32608376  0.98668267  0.94367856    -0.78970
Co485      Co  0.29377401  0.96796377  0.03064978     1.51530
Co486      Co  0.28251634  0.04149383  0.96670088     1.51690
Co487      Co  0.34152007  0.99822946  0.99377186     1.51570
Co488      Co  0.24006849  0.00696229  0.00041148     1.51470
O489        O  0.29657088  0.01737270  0.00947040    -1.40870
C490        C  0.25536764  0.91918563  0.01985506     1.10690
C491        C  0.33397011  0.01229994  0.92292277     1.10780
C492        C  0.35646296  0.93630700  0.99012232     1.10710
C493        C  0.24729880  0.03274309  0.91613204     1.10690
O494        O  0.70653570  0.95402879  0.01388694    -0.78930
O495        O  0.76543541  0.03699522  0.91891564    -0.78960
O496        O  0.68314495  0.02903360  0.95774517    -0.78960
O497        O  0.79916391  0.94872600  0.99870289    -0.78910
O498        O  0.73036202  0.04627864  0.92336042    -0.79030
O499        O  0.74162606  0.94016209  0.01492005    -0.78950
O500        O  0.81039252  0.00274983  0.94054383    -0.78930
O501        O  0.67438268  0.99884928  0.98872806    -0.78970
C502        C  0.67791717  0.96535834  0.99660534     1.10760
C503        C  0.79120928  0.01509786  0.91331661     1.10640
C504        C  0.69733418  0.03497974  0.92665515     1.10780
C505        C  0.77168454  0.92677740  0.00501273     1.10660
O506        O  0.75770894  0.96628559  0.07551620    -0.78930
O507        O  0.71986297  0.09214396  0.96891768    -0.79010
O508        O  0.67428352  0.04910177  0.03644479    -0.78940
O509        O  0.80693018  0.06610883  0.99977467    -0.78920
O510        O  0.78765396  0.09361424  0.94881101    -0.78980
O511        O  0.70111795  0.00021991  0.05974653    -0.78940
O512        O  0.79591795  0.00979108  0.05565070    -0.78900
O513        O  0.67985143  0.07384046  0.01101955    -0.78970
Co514      Co  0.74667249  0.98845038  0.03118460     1.51530
Co515      Co  0.76157513  0.05421927  0.96709245     1.51690
Co516      Co  0.71185856  0.03476701  0.00334259     1.51570
Co517      Co  0.80100981  0.00674241  0.99724484     1.51470
O518        O  0.74675500  0.00805465  0.98464668    -1.40870
C519        C  0.78050536  0.99109683  0.08232250     1.10690
C520        C  0.69098175  0.09729475  0.98792626     1.10780
C521        C  0.67643745  0.02456079  0.06110774     1.10710
C522        C  0.80178768  0.09586646  0.97980436     1.10690
O523        O  0.95278482  0.82739784  0.54329124    -0.78930
O524        O  0.02848276  0.77779148  0.42148312    -0.78960
O525        O  0.04368908  0.85485719  0.47191658    -0.78960
O526        O  0.95607556  0.72012615  0.49638880    -0.78910
O527        O  0.03931469  0.81061266  0.43077210    -0.79030
O528        O  0.93933430  0.77493125  0.50619146    -0.78950
O529        O  0.01015126  0.72377179  0.44147632    -0.78930
O530        O  0.98746780  0.85578795  0.50530589    -0.78970
C531        C  0.95833237  0.85393947  0.52256868     1.10760
C532        C  0.01411439  0.74739291  0.41500389     1.10640
C533        C  0.03799997  0.84447127  0.43960258     1.10780
C534        C  0.93092628  0.74385666  0.49737216     1.10660
O535        O  0.95996980  0.76120516  0.57536880    -0.78930
O536        O  0.09047019  0.80553847  0.46966743    -0.79010
O537        O  0.04355518  0.85915591  0.55055843    -0.78940
O538        O  0.07106138  0.73028742  0.50165468    -0.78920
O539        O  0.08641787  0.74233677  0.44473298    -0.78980
O540        O  0.02244756  0.80364545  0.56867049    -0.78940
O541        O  0.01060995  0.73228524  0.55777541    -0.78900
O542        O  0.07788636  0.80179759  0.52511378    -0.78970
Co543      Co  0.98181947  0.78361295  0.53518121     1.51530
Co544      Co  0.04950979  0.76999800  0.46738307     1.51690
Co545      Co  0.02994438  0.82617452  0.51570969     1.51570
Co546      Co  0.01190211  0.73052612  0.49887150     1.51470
O547        O  0.00817137  0.78798781  0.49058534    -1.40870
C548        C  0.98747458  0.74195889  0.58341242     1.10690
C549        C  0.09997487  0.81218937  0.50127556     1.10780
C550        C  0.03460344  0.83600364  0.57539914     1.10710
C551        C  0.09637691  0.73361878  0.47657680     1.10690
O552        O  0.83163656  0.95530780  0.45602221    -0.78930
O553        O  0.77685368  0.02649374  0.57497896    -0.78960
O554        O  0.85720716  0.04569765  0.52696552    -0.78960
O555        O  0.72337320  0.95319191  0.50110756    -0.78910
O556        O  0.80894681  0.03944427  0.56492171    -0.79030
O557        O  0.77809889  0.93847947  0.48692677    -0.78950
O558        O  0.72394188  0.00605191  0.55572994    -0.78930
O559        O  0.85913245  0.98972234  0.49380777    -0.78970
C560        C  0.85735064  0.96050962  0.47752241     1.10760
C561        C  0.74719744  0.01053706  0.58207463     1.10640
C562        C  0.84374161  0.04006679  0.55863258     1.10780
C563        C  0.74776030  0.92881234  0.49792080     1.10660
O564        O  0.76682409  0.96270457  0.41903035    -0.78930
O565        O  0.80275071  0.08818232  0.52906444    -0.79010
O566        O  0.86322579  0.04299661  0.44345329    -0.78940
O567        O  0.72900639  0.06860738  0.49443450    -0.78920
O568        O  0.73970729  0.08353030  0.55098536    -0.78980
O569        O  0.80649830  0.02536342  0.42896302    -0.78940
O570        O  0.73379053  0.00960749  0.43923160    -0.78900
O571        O  0.80790710  0.08132824  0.47247039    -0.78970
Co572      Co  0.78633754  0.98309431  0.46047203     1.51530
Co573      Co  0.76864437  0.04730836  0.52856367     1.51690
Co574      Co  0.83018380  0.03229627  0.48204180     1.51570
Co575      Co  0.73169302  0.00946475  0.49805046     1.51470
O576        O  0.78979036  0.00805366  0.50567314    -1.40870
C577        C  0.74519901  0.98889839  0.41262316     1.10690
C578        C  0.81095672  0.10172531  0.49923961     1.10780
C579        C  0.84007042  0.03160908  0.41986214     1.10710
C580        C  0.73043738  0.09362988  0.51935026     1.10690
O581        O  0.18624709  0.96493920  0.44831680    -0.78930
O582        O  0.25290803  0.10855227  0.53619056    -0.78960
O583        O  0.15913658  0.04880288  0.52225511    -0.78960
O584        O  0.29056822  0.02208803  0.44472658    -0.78910
O585        O  0.20027913  0.08225444  0.49316958    -0.79030
O586        O  0.24666433  0.98440303  0.43229704    -0.78950
O587        O  0.29079141  0.07413815  0.50060631    -0.78930
O588        O  0.15971469  0.00668612  0.47743969    -0.78970
C589        C  0.16197182  0.98852610  0.44977933     1.10760
C590        C  0.27883221  0.10607022  0.51324279     1.10640
C591        C  0.16727025  0.07509561  0.50052939     1.10780
C592        C  0.27083246  0.00598292  0.42145473     1.10660
O593        O  0.24251423  0.92334369  0.46762229    -0.78930
O594        O  0.20414100  0.06249015  0.56800951    -0.79010
O595        O  0.15068336  0.97146515  0.54051804    -0.78940
O596        O  0.28559087  0.99943616  0.55429774    -0.78920
O597        O  0.27529566  0.05399514  0.56346705    -0.78980
O598        O  0.20485729  0.94683917  0.52639205    -0.78940
O599        O  0.28727414  0.95399983  0.49674793    -0.78900
O600        O  0.20992382  0.00423237  0.56949388    -0.78970
Co601      Co  0.22964289  0.96905417  0.48032258     1.51530
Co602      Co  0.23809089  0.06414198  0.52522423     1.51690
Co603      Co  0.18753704  0.00224113  0.52192902     1.51570
Co604      Co  0.28601090  0.01317199  0.49970058     1.51470
O605        O  0.23029739  0.01898593  0.49877376    -1.40870
C606        C  0.27221676  0.92348172  0.48519414     1.10690
C607        C  0.19904479  0.03242476  0.58447683     1.10780
C608        C  0.17044557  0.94353767  0.53459178     1.10710
C609        C  0.28208531  0.02406446  0.57695957     1.10690
O610        O  0.01315307  0.20074099  0.54485872    -0.78930
O611        O  0.06858336  0.23907757  0.50222486    -0.78960
O612        O  0.03036003  0.17435857  0.46810382    -0.78960
O613        O  0.00373968  0.29643189  0.55507197    -0.78910
O614        O  0.07234768  0.20501787  0.43744737    -0.79030
O615        O  0.97681336  0.24811230  0.58622043    -0.78950
O616        O  0.05986903  0.29827916  0.49837243    -0.78930
O617        O  0.97771530  0.16686131  0.51153750    -0.78970
C618        C  0.99814414  0.17030193  0.53941784     1.10760
C619        C  0.08123756  0.27086613  0.50432189     1.10640
C620        C  0.06168266  0.17584839  0.45254929     1.10780
C621        C  0.99503881  0.27804766  0.58572905     1.10660
O622        O  0.93890612  0.27783729  0.53814320    -0.78930
O623        O  0.00163350  0.21870786  0.41823802    -0.79010
O624        O  0.93147715  0.21950258  0.47288583    -0.78940
O625        O  0.00169807  0.30495884  0.43850680    -0.78920
O626        O  0.05061176  0.27350111  0.43517474    -0.78980
O627        O  0.93391439  0.21145159  0.53204527    -0.78940
O628        O  0.94712538  0.30533770  0.48771861    -0.78900
O629        O  0.96740699  0.16936240  0.43355000    -0.78970
Co630      Co  0.97977795  0.24181952  0.53844897     1.51530
Co631      Co  0.03494155  0.22952219  0.46207959     1.51690
Co632      Co  0.98104180  0.20193774  0.46875718     1.51570
Co633      Co  0.00254737  0.30035555  0.49467778     1.51470
O634        O  0.99510407  0.24721941  0.49034669    -1.40870
C635        C  0.92501240  0.29246191  0.51083778     1.10690
C636        C  0.98095980  0.19154329  0.40981949     1.10780
C637        C  0.91603350  0.21030557  0.50218713     1.10710
C638        C  0.02573306  0.29014879  0.41864184     1.10690
O639        O  0.98014013  0.98289767  0.34386883    -0.78930
O640        O  0.06703000  0.00435615  0.21057034    -0.78960
O641        O  0.96859761  0.91891165  0.25125703    -0.78960
O642        O  0.06837127  0.05853904  0.31585848    -0.78910
O643        O  0.00753191  0.95274517  0.21404122    -0.79030
O644        O  0.03253992  0.02060397  0.34231043    -0.78950
O645        O  0.08276994  0.01874991  0.26486032    -0.78930
O646        O  0.00813597  0.94554243  0.30635293    -0.78970
C647        C  0.99862405  0.95402386  0.33796701     1.10760
C648        C  0.09164962  0.00677892  0.23509279     1.10640
C649        C  0.99311026  0.92106601  0.22637798     1.10780
C650        C  0.06221933  0.03723593  0.34159901     1.10660
O651        O  0.97480478  0.06535619  0.34192216    -0.78930
O652        O  0.95619616  0.02871832  0.21746209    -0.79010
O653        O  0.93529025  0.97036057  0.29563020    -0.78940
O654        O  0.06521020  0.08869285  0.25057523    -0.78920
O655        O  0.01781197  0.07179053  0.21656376    -0.78980
O656        O  0.94072837  0.02905403  0.28976567    -0.78940
O657        O  0.99869467  0.08262678  0.28733513    -0.78900
O658        O  0.94522102  0.97393938  0.22477773    -0.78970
Co659      Co  0.98862504  0.02764256  0.31236211     1.51530
Co660      Co  0.01108194  0.01356966  0.21696260     1.51690
Co661      Co  0.98044956  0.96322618  0.26527730     1.51570
Co662      Co  0.04053115  0.04888848  0.27153594     1.51470
O663        O  0.00946363  0.00647858  0.27212149    -1.40870
C664        C  0.98296754  0.08975834  0.31777124     1.10690
C665        C  0.93218586  0.00427405  0.21970919     1.10780
C666        C  0.92163365  0.00188645  0.29901586     1.10710
C667        C  0.04007093  0.09707964  0.22855650     1.10690
O668        O  0.08319270  0.98634012  0.70426661    -0.78930
O669        O  0.00574782  0.08212923  0.72110521    -0.78960
O670        O  0.99437246  0.02993602  0.64639596    -0.78960
O671        O  0.07090105  0.01449090  0.78750510    -0.78910
O672        O  0.99411682  0.07256459  0.68919007    -0.79030
O673        O  0.09016543  0.99757160  0.73539445    -0.78950
O674        O  0.01701353  0.06894605  0.77782787    -0.78930
O675        O  0.04871951  0.98287800  0.65384593    -0.78970
C676        C  0.07902701  0.98938038  0.66966856     1.10760
C677        C  0.01572535  0.09277649  0.75172158     1.10640
C678        C  0.99611720  0.06310924  0.65555804     1.10780
C679        C  0.09770376  0.01073065  0.76538792     1.10660
O680        O  0.06829951  0.93815826  0.77225014    -0.78930
O681        O  0.94192628  0.03937998  0.69460571    -0.79010
O682        O  0.99854194  0.93357441  0.69592493    -0.78940
O683        O  0.95549047  0.01021370  0.77523590    -0.78920
O684        O  0.94273899  0.06575001  0.75505646    -0.78980
O685        O  0.05531499  0.93369989  0.70768015    -0.78940
O686        O  0.01060929  0.95326497  0.78173178    -0.78900
O687        O  0.94585770  0.98196309  0.68864103    -0.78970
Co688      Co  0.04460386  0.97249452  0.74105330     1.51530
Co689      Co  0.97966395  0.03839566  0.73186170     1.51690
Co690      Co  0.99773891  0.98289935  0.67385436     1.51570
Co691      Co  0.01372172  0.01133210  0.77636206     1.51470
O692        O  0.01779284  0.00886459  0.71793188    -1.40870
C693        C  0.03579225  0.92826122  0.77992213     1.10690
C694        C  0.92904615  0.01087009  0.68219728     1.10780
C695        C  0.02849290  0.91748120  0.69535316     1.10710
C696        C  0.93150715  0.03550558  0.76811934     1.10690
C697        C  0.01449965  0.24754114  0.26409300     0.01770
C698        C  0.01005683  0.27330813  0.23677836     0.01770
C699        C  0.74878645  0.01193664  0.23401390     0.01770
C700        C  0.77558719  0.01427209  0.26022546     0.01770
C701        C  0.01858970  0.74864816  0.23806685     0.01770
C702        C  0.01718559  0.77585519  0.26279282     0.01770
C703        C  0.27565566  0.00284186  0.23922348     0.01770
C704        C  0.24776229  0.00449932  0.26457393     0.01770
C705        C  0.26552105  0.27780864  0.49411339     0.01770
C706        C  0.24011409  0.25022268  0.49803074     0.01770
C707        C  0.74333086  0.27492609  0.49782122     0.01770
C708        C  0.77004103  0.24863121  0.49894721     0.01770
C709        C  0.27404028  0.74518868  0.50701218     0.01770
C710        C  0.24945234  0.77333751  0.50718196     0.01770
C711        C  0.27700962  0.01510034  0.75928180     0.01770
C712        C  0.25017228  0.01441174  0.73336085     0.01770
C713        C  0.23113208  0.27180226  0.99540845     0.01770
C714        C  0.25691027  0.24522237  0.99720546     0.01770
C715        C  0.25725697  0.73989475  0.99715304     0.01770
C716        C  0.28353742  0.76679276  0.99923699     0.01770
C717        C  0.51720394  0.73007626  0.26453433     0.01770
C718        C  0.52180669  0.75761394  0.23926442     0.01770
C719        C  0.51425534  0.25760381  0.26073751     0.01770
C720        C  0.51164625  0.23091784  0.23540432     0.01770
C721        C  0.52276361  0.27822757  0.72666641     0.01770
C722        C  0.52361217  0.24936214  0.75054687     0.01770
C723        C  0.01880623  0.27186153  0.76222602     0.01770
C724        C  0.02091618  0.24893035  0.73358662     0.01770
C725        C  0.77705618  0.27442047  0.00498279     0.01770
C726        C  0.75679784  0.24293963  0.00834020     0.01770
C727        C  0.27610997  0.49279451  0.25804499     0.01770
C728        C  0.25026364  0.49219182  0.23072967     0.01770
C729        C  0.74764921  0.51342767  0.26162940     0.01770
C730        C  0.77293840  0.51438491  0.23400315     0.01770
C731        C  0.27408288  0.50489940  0.72999445     0.01770
C732        C  0.24577475  0.50354082  0.75468636     0.01770
C733        C  0.00466774  0.75026209  0.75975837     0.01770
C734        C  0.00558360  0.77872142  0.73485130     0.01770
C735        C  0.75332776  0.00474578  0.76238229     0.01770
C736        C  0.77827649  0.00559259  0.73445205     0.01770
C737        C  0.78205171  0.74064665  0.99914136     0.01770
C738        C  0.75546788  0.76639512  0.00425122     0.01770
C739        C  0.77832439  0.49683436  0.76783835     0.01770
C740        C  0.75316741  0.49520812  0.73997347     0.01770
C741        C  0.75104927  0.74645861  0.49997752     0.01770
C742        C  0.77720556  0.77363763  0.49813133     0.01770
C743        C  0.50952275  0.74587368  0.73729941     0.01770
C744        C  0.51142670  0.77173492  0.76381230     0.01770
C745        C  0.86706260  0.05553476  0.75452262     0.24800
C746        C  0.89110988  0.02755281  0.76587906    -0.23310
C747        C  0.87719009  0.99158759  0.76709248     0.19710
C748        C  0.84085153  0.98402419  0.75635625     0.24740
C749        C  0.81812388  0.01189878  0.74268664    -0.23250
C750        C  0.83189298  0.04757317  0.74164728     0.19640
F751        F  0.81067847  0.07522470  0.72901936    -0.13210
F752        F  0.87804979  0.09089302  0.75413510    -0.15570
F753        F  0.82798114  0.94938471  0.75888968    -0.15570
F754        F  0.89894672  0.96352971  0.77757866    -0.13210
C755        C  0.05087642  0.19024951  0.75612712     0.24800
C756        C  0.02098692  0.20864476  0.73995238    -0.23310
C757        C  0.98906673  0.18897548  0.73258184     0.19710
C758        C  0.98679411  0.15202935  0.74083314     0.24740
C759        C  0.01692497  0.13285903  0.75538693    -0.23250
C760        C  0.04904911  0.15237799  0.76331536     0.19640
F761        F  0.07898595  0.13468794  0.77611194    -0.13210
F762        F  0.08206794  0.20876248  0.76386738    -0.15570
F763        F  0.95522459  0.13440273  0.73253993    -0.15570
F764        F  0.95942359  0.20565903  0.71787307    -0.13210
C765        C  0.15602012  0.04694265  0.76618354     0.24800
C766        C  0.13762039  0.01371910  0.77234573    -0.23310
C767        C  0.15752702  0.98133101  0.76723645     0.19710
C768        C  0.19278406  0.98198189  0.75247475     0.24740
C769        C  0.21072823  0.01498939  0.74509109    -0.23250
C770        C  0.19264090  0.04756819  0.75395042     0.19640
F771        F  0.21004873  0.08006773  0.75024407    -0.13210
F772        F  0.13780163  0.07872957  0.76957390    -0.15570
F773        F  0.20934989  0.95006666  0.74490367    -0.15570
F774        F  0.14101877  0.94851532  0.77241552    -0.13210
C775        C  0.99047405  0.87581492  0.76998472     0.24800
C776        C  0.02666682  0.88819059  0.77621703    -0.23310
C777        C  0.05530322  0.86339756  0.76947733     0.19710
C778        C  0.04837156  0.82917924  0.75455417     0.24740
C779        C  0.01249564  0.81726146  0.74736181    -0.23250
C780        C  0.98355220  0.84066040  0.75627568     0.19640
F781        F  0.94845888  0.82978316  0.75084907    -0.13210
F782        F  0.96176646  0.89830620  0.77533171    -0.15570
F783        F  0.07724643  0.80766203  0.74695924    -0.15570
F784        F  0.09073482  0.87285609  0.77554427    -0.13210
C785        C  0.18505282  0.97355100  0.26321014     0.24800
C786        C  0.20764279  0.00327092  0.25303572    -0.23310
C787        C  0.19191974  0.03077690  0.23092465     0.19710
C788        C  0.15478864  0.02893723  0.22009769     0.24740
C789        C  0.13185654  0.99976801  0.23121534    -0.23250
C790        C  0.14786394  0.97196294  0.25269726     0.19640
F791        F  0.12658418  0.94444875  0.26597563    -0.13210
F792        F  0.19881222  0.94614625  0.28409338    -0.15570
F793        F  0.14022649  0.05763249  0.20160576    -0.15570
F794        F  0.21200097  0.06057623  0.22135383    -0.13210
C795        C  0.03974017  0.87352004  0.23256719     0.24800
C796        C  0.00632033  0.88469501  0.21694172    -0.23310
C797        C  0.97833914  0.85846285  0.21351519     0.19710
C798        C  0.98061561  0.82513833  0.23205780     0.24740
C799        C  0.01323075  0.81436082  0.24923944    -0.23250
C800        C  0.04334624  0.83836528  0.24803365     0.19640
F801        F  0.07564658  0.82835581  0.26326868    -0.13210
F802        F  0.06722957  0.89803682  0.23690313    -0.15570
F803        F  0.95019021  0.80395510  0.23450916    -0.15570
F804        F  0.94564054  0.86821653  0.19884828    -0.13210
C805        C  0.83527643  0.04457830  0.23624703     0.24800
C806        C  0.81601642  0.01355397  0.24961514    -0.23310
C807        C  0.83450550  0.98024770  0.24941693     0.19710
C808        C  0.87001735  0.97740668  0.23536618     0.24740
C809        C  0.89077169  0.00853459  0.22422570    -0.23250
C810        C  0.87246440  0.04230896  0.22470509     0.19640
F811        F  0.89066397  0.07320164  0.21492727    -0.13210
F812        F  0.81843145  0.07734714  0.23540039    -0.15570
F813        F  0.88487421  0.94364357  0.23521065    -0.15570
F814        F  0.81812327  0.94972896  0.26289532    -0.13210
C815        C  0.06112044  0.16171582  0.22986083     0.24800
C816        C  0.03179165  0.13691334  0.22652559    -0.23310
C817        C  0.99625201  0.14954278  0.23417740     0.19710
C818        C  0.99084893  0.18485796  0.24761518     0.24740
C819        C  0.02068238  0.20858663  0.25332497    -0.23250
C820        C  0.05568800  0.19684629  0.24290690     0.19640
F821        F  0.08504426  0.21934871  0.24519386    -0.13210
F822        F  0.09578839  0.15105208  0.22245194    -0.15570
F823        F  0.95644155  0.19565085  0.25581390    -0.15570
F824        F  0.96702539  0.12677623  0.23156876    -0.13210
C825        C  0.97844626  0.29148689  0.64809795     0.24800
C826        C  0.00667301  0.28843532  0.62247390    -0.23310
C827        C  0.04102037  0.27602140  0.63474906     0.19710
C828        C  0.04588420  0.26367780  0.67079243     0.24740
C829        C  0.01647160  0.26344389  0.69531038    -0.23250
C830        C  0.98289846  0.27826227  0.68361359     0.19640
F831        F  0.95334215  0.27748349  0.70576823    -0.13210
F832        F  0.94460425  0.30214020  0.63715020    -0.15570
F833        F  0.07886029  0.25036189  0.68129640    -0.15570
F834        F  0.06860152  0.27171604  0.61072813    -0.13210
C835        C  0.83141761  0.26739662  0.46999208     0.24800
C836        C  0.81012504  0.26034391  0.50130902    -0.23310
C837        C  0.82566289  0.26948923  0.53484526     0.19710
C838        C  0.86162243  0.28342558  0.53729339     0.24740
C839        C  0.88378398  0.28903572  0.50623596    -0.23250
C840        C  0.86760963  0.28157476  0.47236401     0.19640
F841        F  0.88771249  0.28535624  0.44166957    -0.13210
F842        F  0.81743706  0.25977496  0.43695466    -0.15570
F843        F  0.87533240  0.29025783  0.57066951    -0.15570
F844        F  0.80603365  0.26470578  0.56569031    -0.13210
C845        C  0.14224730  0.28241621  0.47476394     0.24800
C846        C  0.12233094  0.27369331  0.50643557    -0.23310
C847        C  0.14168616  0.25704154  0.53537409     0.19710
C848        C  0.17964854  0.24995330  0.53289751     0.24740
C849        C  0.19927769  0.25794557  0.50086809    -0.23250
C850        C  0.17975641  0.27394622  0.47174646     0.19640
F851        F  0.19642166  0.27931755  0.43933776    -0.13210
F852        F  0.12464229  0.29639212  0.44535747    -0.15570
F853        F  0.19711214  0.23457273  0.56171066    -0.15570
F854        F  0.12347864  0.24633532  0.56573711    -0.13210
C855        C  0.98906702  0.28625671  0.35867586     0.24800
C856        C  0.02264742  0.28476370  0.37777664    -0.23310
C857        C  0.05294140  0.27059260  0.35886917     0.19710
C858        C  0.04973945  0.25735439  0.32340678     0.24740
C859        C  0.01635710  0.25843846  0.30421239    -0.23250
C860        C  0.98607145  0.27357832  0.32252271     0.19640
F861        F  0.95315871  0.27546172  0.30559750    -0.13210
F862        F  0.95866285  0.29859100  0.37540284    -0.15570
F863        F  0.08007768  0.24368335  0.30791311    -0.15570
F864        F  0.08618667  0.26832065  0.37519261    -0.13210
C865        C  0.94460276  0.14068864  0.33707307     0.24800
C866        C  0.97821636  0.12749775  0.32541090    -0.23310
C867        C  0.01027336  0.14787878  0.33006563     0.19710
C868        C  0.00994633  0.17618754  0.35400132     0.24740
C869        C  0.97730897  0.18386354  0.37212499    -0.23250
C870        C  0.94408485  0.16997222  0.35987332     0.19640
F871        F  0.91208643  0.18014158  0.37491862    -0.13210
F872        F  0.91307921  0.12296614  0.33025030    -0.15570
F873        F  0.04256706  0.18928326  0.36581757    -0.15570
F874        F  0.04299283  0.13585139  0.31776843    -0.13210
C875        C  0.97852849  0.10997696  0.56560784     0.24800
C876        C  0.00049672  0.14137269  0.56782101    -0.23310
C877        C  0.02162121  0.14665093  0.59947344     0.19710
C878        C  0.01979321  0.12167074  0.62847729     0.24740
C879        C  0.99751720  0.09066703  0.62613546    -0.23250
C880        C  0.97721998  0.08491196  0.59432972     0.19640
F881        F  0.95502000  0.05539016  0.59140337    -0.13210
F882        F  0.95727698  0.10386873  0.53614247    -0.15570
F883        F  0.04043372  0.12737028  0.65844454    -0.15570
F884        F  0.04375613  0.17621288  0.60275357    -0.13210
C885        C  0.25737855  0.04833587  0.67386981     0.24800
C886        C  0.25966873  0.01539909  0.69330654    -0.23310
C887        C  0.27375147  0.98495529  0.67500329     0.19710
C888        C  0.28296336  0.98718822  0.63756707     0.24740
C889        C  0.27966654  0.02033540  0.61795780    -0.23250
C890        C  0.26822564  0.05113589  0.63765327     0.19640
F891        F  0.26581559  0.08456163  0.62157893    -0.13210
F892        F  0.24506545  0.07864799  0.69007377    -0.15570
F893        F  0.29381095  0.95679055  0.62043188    -0.15570
F894        F  0.27724551  0.95268330  0.69300435    -0.13210
C895        C  0.29659621  0.16774137  0.52668967     0.24800
C896        C  0.28900335  0.14251404  0.49934867    -0.23310
C897        C  0.26801256  0.15475921  0.46951134     0.19710
C898        C  0.25019174  0.18867332  0.46998762     0.24740
C899        C  0.25395259  0.21167544  0.49979781    -0.23250
C900        C  0.27765897  0.20076615  0.52801368     0.19640
F901        F  0.28195560  0.22199699  0.55739283    -0.13210
F902        F  0.31669805  0.15716373  0.55592818    -0.15570
F903        F  0.22903422  0.19895614  0.44142259    -0.15570
F904        F  0.26054835  0.13165174  0.44221469    -0.13210
C905        C  0.27101260  0.87260863  0.52947470     0.24800
C906        C  0.28417025  0.88654587  0.49608599    -0.23310
C907        C  0.29013861  0.86192180  0.46809476     0.19710
C908        C  0.27946711  0.82536379  0.47187041     0.24740
C909        C  0.26310585  0.81210356  0.50411561    -0.23250
C910        C  0.26033866  0.83583299  0.53335063     0.19640
F911        F  0.24559935  0.82383378  0.56510183    -0.13210
F912        F  0.26404276  0.89565443  0.55686992    -0.15570
F913        F  0.28252306  0.80369244  0.44276770    -0.15570
F914        F  0.30166663  0.87445894  0.43521751    -0.13210
C915        C  0.25139319  0.03846826  0.32446327     0.24800
C916        C  0.25663357  0.00624294  0.30487923    -0.23310
C917        C  0.27119230  0.97603101  0.32381623     0.19710
C918        C  0.27974513  0.97776200  0.36098170     0.24740
C919        C  0.27401816  0.00968966  0.38089436    -0.23250
C920        C  0.25979209  0.04013013  0.36192992     0.19640
F921        F  0.25161531  0.07070585  0.38018139    -0.13210
F922        F  0.23731723  0.06824602  0.30741626    -0.15570
F923        F  0.29156796  0.94712501  0.37830181    -0.15570
F924        F  0.27553324  0.94402310  0.30671294    -0.13210
C925        C  0.14818548  0.12317255  0.45649144     0.24800
C926        C  0.13874347  0.09667934  0.48298370    -0.23310
C927        C  0.10196413  0.09156923  0.49260649     0.19710
C928        C  0.07573663  0.11524086  0.47917663     0.24740
C929        C  0.08620804  0.14495857  0.45679038    -0.23250
C930        C  0.12210180  0.14732559  0.44367294     0.19640
F931        F  0.13262353  0.17424118  0.42018012    -0.13210
F932        F  0.18291314  0.12688538  0.44391365    -0.15570
F933        F  0.04060800  0.11033121  0.49027357    -0.15570
F934        F  0.09142994  0.06496868  0.51643254    -0.13210
C935        C  0.14787209  0.00107280  0.38486659     0.24800
C936        C  0.13595464  0.99645747  0.42074329    -0.23310
C937        C  0.10052309  0.00739011  0.43040343     0.19710
C938        C  0.07749950  0.02305620  0.40481550     0.24740
C939        C  0.08939513  0.02820696  0.36910705    -0.23250
C940        C  0.12469680  0.01716283  0.35911380     0.19640
F941        F  0.13621172  0.02080898  0.32433581    -0.13210
F942        F  0.18223972  0.99142722  0.37516816    -0.15570
F943        F  0.04332238  0.03311730  0.41485077    -0.15570
F944        F  0.08835073  0.00341061  0.46497739    -0.13210
C945        C  0.17452406  0.99648830  0.63566472     0.24800
C946        C  0.17257594  0.02795271  0.61357529    -0.23310
C947        C  0.13985468  0.04779325  0.61175405     0.19710
C948        C  0.10864860  0.03414198  0.62886163     0.24740
C949        C  0.11048254  0.00166847  0.64917213    -0.23250
C950        C  0.14388354  0.98402843  0.65413809     0.19640
F951        F  0.14635206  0.95361996  0.67537285    -0.13210
F952        F  0.20499783  0.97575048  0.63657102    -0.15570
F953        F  0.07671485  0.05256563  0.62566405    -0.15570
F954        F  0.13705831  0.07831813  0.59070587    -0.13210
C955        C  0.73463093  0.15857349  0.54105547     0.24800
C956        C  0.73218161  0.13456838  0.51151133    -0.23310
C957        C  0.74097525  0.14943645  0.47693158     0.19710
C958        C  0.75382136  0.18594218  0.47272259     0.24740
C959        C  0.75880674  0.20861426  0.50288593    -0.23250
C960        C  0.74829772  0.19431579  0.53690908     0.19640
F961        F  0.75162510  0.21495753  0.56676038    -0.13210
F962        F  0.72535172  0.14692918  0.57491998    -0.15570
F963        F  0.76238728  0.19880107  0.43913887    -0.15570
F964        F  0.73966434  0.12801417  0.44745648    -0.13210
C965        C  0.74034098  0.97022147  0.34836176     0.24800
C966        C  0.74195816  0.99880473  0.37322636    -0.23310
C967        C  0.75327309  0.03340622  0.36006708     0.19710
C968        C  0.76472657  0.03847097  0.32370842     0.24740
C969        C  0.76487933  0.00920799  0.29959205    -0.23250
C970        C  0.75185228  0.97521312  0.31242112     0.19640
F971        F  0.75126824  0.94615455  0.29037939    -0.13210
F972        F  0.72996062  0.93636487  0.35971673    -0.15570
F973        F  0.77638637  0.07183584  0.31225848    -0.15570
F974        F  0.75594427  0.06170109  0.38300031    -0.13210
C975        C  0.77440242  0.97502074  0.67338344     0.24800
C976        C  0.76608611  0.00486693  0.69517726    -0.23310
C977        C  0.74478133  0.03303588  0.67971956     0.19710
C978        C  0.73251561  0.03148338  0.64359325     0.24740
C979        C  0.74187577  0.00225144  0.62130253    -0.23250
C980        C  0.76266608  0.97384345  0.63701874     0.19640
F981        F  0.77458102  0.94643554  0.61604349    -0.13210
F982        F  0.79483026  0.94729621  0.68704193    -0.15570
F983        F  0.71482252  0.06067096  0.62909861    -0.15570
F984        F  0.73737515  0.06312561  0.69903671    -0.13210
C985        C  0.76496964  0.87187492  0.53138769     0.24800
C986        C  0.74370304  0.88854817  0.50390320    -0.23310
C987        C  0.73346938  0.86682860  0.47441243     0.19710
C988        C  0.74467430  0.83013634  0.47219649     0.24740
C989        C  0.76650325  0.81371983  0.49947387    -0.23250
C990        C  0.77606346  0.83524811  0.52930661     0.19640
F991        F  0.79683546  0.82116362  0.55646059    -0.13210
F992        F  0.77768873  0.89214358  0.55908670    -0.15570
F993        F  0.73578629  0.81118358  0.44225744    -0.15570
F994        F  0.71542163  0.88218839  0.44593435    -0.13210
C995        C  0.84141849  0.15257147  0.46559244     0.24800
C996        C  0.82769722  0.13792317  0.49798661    -0.23310
C997        C  0.83512279  0.15566580  0.53084329     0.19710
C998        C  0.86161397  0.18273789  0.53200557     0.24740
C999        C  0.87983565  0.19319714  0.50025732    -0.23250
C1000       C  0.86669745  0.18086581  0.46668181     0.19640
F1001       F  0.88075456  0.19363610  0.43501993    -0.13210
F1002       F  0.83279361  0.13774068  0.43327911    -0.15570
F1003       F  0.87142223  0.19645270  0.56450333    -0.15570
F1004       F  0.81954227  0.14457797  0.56255124    -0.13210
C1005       C  0.87713823  0.04399036  0.32586345     0.24800
C1006       C  0.88779964  0.00803909  0.31924109    -0.23310
C1007       C  0.87227984  0.97980983  0.33988758     0.19710
C1008       C  0.85287748  0.98797996  0.37093133     0.24740
C1009       C  0.85111728  0.02416599  0.38272919    -0.23250
C1010       C  0.86079757  0.05237491  0.35876269     0.19640
F1011       F  0.85520190  0.08756980  0.36757248    -0.13210
F1012       F  0.88492549  0.07083320  0.30148950    -0.15570
F1013       F  0.83815661  0.96009566  0.39020796    -0.15570
F1014       F  0.87849753  0.94446712  0.33198516    -0.13210
C1015       C  0.90371299  0.99097465  0.62390183     0.24800
C1016       C  0.90190458  0.01413712  0.65362490    -0.23310
C1017       C  0.88100198  0.04614466  0.65125739     0.19710
C1018       C  0.86326635  0.05541246  0.61940088     0.24740
C1019       C  0.86701691  0.03346217  0.58930383    -0.23250
C1020       C  0.88648182  0.00084825  0.59172459     0.19640
F1021       F  0.88809626  0.97821870  0.56325204    -0.13210
F1022       F  0.92423401  0.96030152  0.62501112    -0.15570
F1023       F  0.84279958  0.08611701  0.61766869    -0.15570
F1024       F  0.87973774  0.06982461  0.67887623    -0.13210
C1025       C  0.19288216  0.77297093  0.46829742     0.24800
C1026       C  0.20893921  0.76553274  0.50204859    -0.23310
C1027       C  0.18806381  0.74529777  0.52773333     0.19710
C1028       C  0.15205380  0.73315211  0.51965873     0.24740
C1029       C  0.13668803  0.73927899  0.48500631    -0.23250
C1030       C  0.15856551  0.75878100  0.45930870     0.19640
F1031       F  0.14626675  0.76617032  0.42527540    -0.13210
F1032       F  0.21129185  0.79250625  0.44265654    -0.15570
F1033       F  0.13230286  0.71562997  0.54576280    -0.15570
F1034       F  0.20253172  0.73750175  0.56077855    -0.13210
C1035       C  0.98353503  0.77426663  0.32298781     0.24800
C1036       C  0.01514311  0.76659991  0.30277752    -0.23310
C1037       C  0.04267667  0.74553125  0.31959157     0.19710
C1038       C  0.03874079  0.73257869  0.35539463     0.24740
C1039       C  0.00783308  0.74142502  0.37608048    -0.23250
C1040       C  0.98001895  0.76191376  0.35909790     0.19640
F1041       F  0.95078973  0.77281063  0.37867369    -0.13210
F1042       F  0.95598980  0.79393808  0.30794530    -0.15570
F1043       F  0.06714781  0.71475602  0.37126367    -0.15570
F1044       F  0.07416184  0.73854716  0.30164478    -0.13210
C1045       C  0.03156393  0.77128845  0.67085515     0.24800
C1046       C  0.00142583  0.77043945  0.69485007    -0.23310
C1047       C  0.96883060  0.75411490  0.68262941     0.19710
C1048       C  0.96608931  0.73992585  0.64764728     0.24740
C1049       C  0.99585048  0.74141018  0.62325787    -0.23250
C1050       C  0.02914717  0.75596754  0.63608029     0.19640
F1051       F  0.05883054  0.75776842  0.61406924    -0.13210
F1052       F  0.06375352  0.78641669  0.68111109    -0.15570
F1053       F  0.93333549  0.72633759  0.63672723    -0.15570
F1054       F  0.93931074  0.75193707  0.70484473    -0.13210
C1055       C  0.87123404  0.73759557  0.52686319     0.24800
C1056       C  0.89091519  0.73760614  0.49412970    -0.23310
C1057       C  0.87251925  0.74911009  0.46240811     0.19710
C1058       C  0.83583598  0.76099911  0.46367112     0.24740
C1059       C  0.81715180  0.76314999  0.49689693    -0.23250
C1060       C  0.83545657  0.75108657  0.52841505     0.19640
F1061       F  0.81924702  0.75348339  0.56122549    -0.13210
F1062       F  0.88830362  0.72832018  0.55833608    -0.15570
F1063       F  0.81889386  0.77150179  0.43253536    -0.15570
F1064       F  0.89095458  0.75129661  0.43059197    -0.13210
C1065       C  0.89554338  0.87067427  0.50582314     0.24800
C1066       C  0.93106944  0.88124228  0.51555647    -0.23310
C1067       C  0.94275372  0.91733267  0.51075051     0.19710
C1068       C  0.91915510  0.94283508  0.49607782     0.24740
C1069       C  0.88357348  0.93247022  0.48628919    -0.23250
C1070       C  0.87185718  0.89625449  0.49086816     0.19640
F1071       F  0.83738969  0.88587953  0.48176945    -0.13210
F1072       F  0.88448937  0.83543407  0.50907578    -0.15570
F1073       F  0.93095204  0.97773757  0.49156278    -0.15570
F1074       F  0.97735928  0.92759920  0.51961385    -0.13210
C1075       C  0.14524340  0.84400941  0.54108048     0.24800
C1076       C  0.12621445  0.84127032  0.50811586    -0.23310
C1077       C  0.12438605  0.87157006  0.48483398     0.19710
C1078       C  0.13333348  0.90525525  0.49739353     0.24740
C1079       C  0.15305958  0.90860180  0.52936530    -0.23250
C1080       C  0.16085941  0.87752318  0.55058931     0.19640
F1081       F  0.18143338  0.88009252  0.58103056    -0.13210
F1082       F  0.14835907  0.81471102  0.56370018    -0.15570
F1083       F  0.12210030  0.93466453  0.47814773    -0.15570
F1084       F  0.11091056  0.86950753  0.45085332    -0.13210
C1085       C  0.98423021  0.91671599  0.39215492     0.24800
C1086       C  0.00983109  0.92950967  0.36689821    -0.23310
C1087       C  0.04475677  0.91366805  0.36499033     0.19710
C1088       C  0.05366436  0.88455158  0.38764348     0.24740
C1089       C  0.02815042  0.87194214  0.41299858    -0.23250
C1090       C  0.99332464  0.88776125  0.41501232     0.19640
F1091       F  0.96753202  0.87397790  0.43783249    -0.13210
F1092       F  0.94985815  0.93053778  0.39299874    -0.15570
F1093       F  0.08678790  0.86845821  0.38444595    -0.15570
F1094       F  0.06989087  0.92594671  0.34052837    -0.13210
C1095       C  0.06880106  0.85995518  0.62681589     0.24800
C1096       C  0.03654681  0.84597833  0.61248476    -0.23310
C1097       C  0.00385383  0.84615250  0.63218975     0.19710
C1098       C  0.00210442  0.86567270  0.66365189     0.24740
C1099       C  0.03321947  0.88457305  0.67520671    -0.23250
C1100       C  0.06745206  0.87836563  0.65904442     0.19640
F1101       F  0.09851973  0.89450522  0.67117015    -0.13210
F1102       F  0.10067115  0.85846353  0.60820307    -0.15570
F1103       F  0.96916021  0.86997853  0.67992455    -0.15570
F1104       F  0.97268007  0.83129408  0.61874984    -0.13210
C1105       C  0.80653350  0.16226742  0.96651945     0.24800
C1106       C  0.80340061  0.13430337  0.99314688    -0.23310
C1107       C  0.78806588  0.14373394  0.02675402     0.19710
C1108       C  0.77423747  0.17922587  0.03233793     0.24740
C1109       C  0.77361555  0.20547212  0.00393173    -0.23250
C1110       C  0.79015372  0.19622042  0.97103441     0.19640
F1111       F  0.78858926  0.21927752  0.94204778    -0.13210
F1112       F  0.82169698  0.15516815  0.93386934    -0.15570
F1113       F  0.75986543  0.18738520  0.06500946    -0.15570
F1114       F  0.78357126  0.11791277  0.05308664    -0.13210
C1115       C  0.79526418  0.82537595  0.01770686     0.24800
C1116       C  0.76287202  0.80765279  0.00461808    -0.23310
C1117       C  0.73475909  0.83098692  0.99295920     0.19710
C1118       C  0.73791198  0.86815452  0.99652032     0.24740
C1119       C  0.77166184  0.88587987  0.00222349    -0.23250
C1120       C  0.80075841  0.86353351  0.01322644     0.19640
F1121       F  0.83243315  0.87883240  0.02487731    -0.13210
F1122       F  0.81935112  0.80776324  0.03933748    -0.15570
F1123       F  0.70612642  0.88541048  0.00092831    -0.15570
F1124       F  0.70184739  0.81862974  0.98127041    -0.13210
C1125       C  0.79809247  0.03723130  0.85048112     0.24800
C1126       C  0.79529015  0.00668715  0.87409168    -0.23310
C1127       C  0.77907479  0.97493109  0.86012031     0.19710
C1128       C  0.76552744  0.97420166  0.82411471     0.24740
C1129       C  0.76652184  0.00559601  0.80150502    -0.23250
C1130       C  0.78286146  0.03712347  0.81554298     0.19640
F1131       F  0.78224698  0.06880055  0.79621650    -0.13210
F1132       F  0.81154515  0.06909809  0.86313614    -0.15570
F1133       F  0.75016512  0.94311907  0.81175931    -0.15570
F1134       F  0.77347548  0.94559646  0.88228650    -0.13210
C1135       C  0.78635637  0.97155663  0.14677107     0.24800
C1136       C  0.78314237  0.00041327  0.12141302    -0.23310
C1137       C  0.76954934  0.03383740  0.13372448     0.19710
C1138       C  0.75831278  0.03767310  0.17009400     0.24740
C1139       C  0.75997292  0.00809461  0.19484337    -0.23250
C1140       C  0.77469164  0.97517858  0.18265559     0.19640
F1141       F  0.77660633  0.94573144  0.20514151    -0.13210
F1142       F  0.79836964  0.93862221  0.13593982    -0.15570
F1143       F  0.74472035  0.06997312  0.18086655    -0.15570
F1144       F  0.76412497  0.06178033  0.10986833    -0.13210
C1145       C  0.26718091  0.86822961  0.97699561     0.24800
C1146       C  0.25082187  0.88046321  0.00908668    -0.23310
C1147       C  0.24347026  0.85447034  0.03668468     0.19710
C1148       C  0.25413354  0.81806924  0.03341217     0.24740
C1149       C  0.27242398  0.80621099  0.00229933    -0.23250
C1150       C  0.27807731  0.83157756  0.97375111     0.19640
F1151       F  0.29485155  0.82102592  0.94297818    -0.13210
F1152       F  0.27539092  0.89237140  0.94995761    -0.15570
F1153       F  0.24793442  0.79465762  0.06156585    -0.15570
F1154       F  0.22854667  0.86514666  0.06837418    -0.13210
C1155       C  0.22695588  0.14891948  0.97327019     0.24800
C1156       C  0.23796479  0.12905500  0.00426764    -0.23310
C1157       C  0.25132169  0.14811224  0.03417242     0.19710
C1158       C  0.25597513  0.18599072  0.03222724     0.24740
C1159       C  0.24728873  0.20556211  0.00036459    -0.23250
C1160       C  0.23181756  0.18677124  0.97118778     0.19640
F1161       F  0.22460782  0.20446819  0.93946638    -0.13210
F1162       F  0.21556599  0.13114467  0.94336515    -0.15570
F1163       F  0.27103041  0.20338072  0.06075499    -0.15570
F1164       F  0.26352874  0.12957342  0.06386725    -0.13210
C1165       C  0.25671078  0.05758501  0.85181096     0.24800
C1166       C  0.24688000  0.02760730  0.87492632    -0.23310
C1167       C  0.24327025  0.99345129  0.85807524     0.19710
C1168       C  0.25238975  0.98917207  0.82073705     0.24740
C1169       C  0.26607096  0.01874444  0.79920134    -0.23250
C1170       C  0.26648119  0.05309842  0.81526150     0.19640
F1171       F  0.27712651  0.08283877  0.79567929    -0.13210
F1172       F  0.25880661  0.09182269  0.86483617    -0.15570
F1173       F  0.25082144  0.95544651  0.80658823    -0.15570
F1174       F  0.23355455  0.96368266  0.87812647    -0.13210
C1175       C  0.24498471  0.97634954  0.18224016     0.24800
C1176       C  0.26655339  0.00373114  0.19846744    -0.23310
C1177       C  0.27658210  0.03371654  0.17608571     0.19710
C1178       C  0.26598574  0.03595806  0.13907652     0.24740
C1179       C  0.24452635  0.00854012  0.12268575    -0.23250
C1180       C  0.23428203  0.97872704  0.14528744     0.19640
F1181       F  0.21639597  0.95006636  0.13064827    -0.13210
F1182       F  0.23538594  0.94625761  0.20188077    -0.15570
F1183       F  0.27919954  0.06389473  0.11832051    -0.15570
F1184       F  0.29712136  0.06097605  0.18997862    -0.13210
C1185       C  0.46813381  0.13840958  0.25976605     0.24800
C1186       C  0.49760039  0.11757804  0.27390598    -0.23310
C1187       C  0.53236223  0.13466475  0.27466582     0.19710
C1188       C  0.53724974  0.17095146  0.26159237     0.24740
C1189       C  0.50783975  0.19091850  0.24640370    -0.23250
C1190       C  0.47337791  0.17379945  0.24558314     0.19640
F1191       F  0.44399432  0.19183136  0.23206762    -0.13210
F1192       F  0.43369874  0.12437676  0.25897754    -0.15570
F1193       F  0.57095082  0.18650844  0.26339738    -0.15570
F1194       F  0.56185866  0.11610313  0.28727263    -0.13210
C1195       C  0.48964126  0.81831928  0.24878593     0.24800
C1196       C  0.52187792  0.79735019  0.25021136    -0.23310
C1197       C  0.55371978  0.81400380  0.26384225     0.19710
C1198       C  0.55389704  0.85102691  0.27348770     0.24740
C1199       C  0.52207719  0.87256897  0.27050303    -0.23250
C1200       C  0.48970033  0.85515879  0.25906173     0.19640
F1201       F  0.45877830  0.87494650  0.25425001    -0.13210
F1202       F  0.45811307  0.80355357  0.23623685    -0.15570
F1203       F  0.58621414  0.86689412  0.28247970    -0.15570
F1204       F  0.58532913  0.79491448  0.26599426    -0.13210
C1205       C  0.33329630  0.96548350  0.25316130     0.24800
C1206       C  0.31551772  0.99947778  0.25224774    -0.23310
C1207       C  0.33480048  0.02905622  0.26724683     0.19710
C1208       C  0.37135118  0.02534488  0.28002180     0.24740
C1209       C  0.39016882  0.99182724  0.27865860    -0.23250
C1210       C  0.36974766  0.96173154  0.26613674     0.19640
F1211       F  0.38650200  0.92910975  0.26289649    -0.13930
F1212       F  0.31580401  0.93584476  0.24003932    -0.15570
F1213       F  0.38938245  0.05551212  0.29108758    -0.15570
F1214       F  0.31867039  0.06215002  0.26834015    -0.13210
C1215       C  0.65046467  0.03122966  0.26895379     0.24800
C1216       C  0.63304507  0.99704667  0.26567493    -0.23310
C1217       C  0.65466541  0.96799298  0.25344804     0.19710
C1218       C  0.69112859  0.97327379  0.24221838     0.24740
C1219       C  0.70847315  0.00746016  0.24443089    -0.23250
C1220       C  0.68780410  0.03621090  0.25895096     0.19640
F1221       F  0.70342358  0.06955184  0.26225651    -0.13210
F1222       F  0.63092529  0.06027276  0.27990866    -0.15570
F1223       F  0.70938350  0.94446581  0.22898116    -0.15570
F1224       F  0.63968244  0.93428965  0.25035487    -0.13210
C1225       C  0.37178290  0.99646836  0.16572369     0.24800
C1226       C  0.38324669  0.03271174  0.16872404    -0.23310
C1227       C  0.37758669  0.05754377  0.14034707     0.19710
C1228       C  0.36793333  0.04460024  0.10675174     0.24740
C1229       C  0.36174915  0.00703003  0.10243755    -0.23250
C1230       C  0.36048167  0.98369789  0.13266633     0.19640
F1231       F  0.35262239  0.94774681  0.12955016    -0.13210
F1232       F  0.37991493  0.97170439  0.19193117    -0.15570
F1233       F  0.36700832  0.06847524  0.07824496    -0.15570
F1234       F  0.38896959  0.09262155  0.14301961    -0.13210
C1235       C  0.65827168  0.00270097  0.12205995     0.24800
C1236       C  0.64967938  0.02195835  0.08987142    -0.23310
C1237       C  0.61415798  0.03487009  0.08390562     0.19710
C1238       C  0.58748797  0.02831584  0.10973357     0.24740
C1239       C  0.59638438  0.00988263  0.14200242    -0.23250
C1240       C  0.63142491  0.99637292  0.14784102     0.19640
F1241       F  0.63948389  0.97700917  0.17826170    -0.13210
F1242       F  0.69244083  0.98976087  0.12848792    -0.15570
F1243       F  0.55247692  0.03818492  0.10248054    -0.15570
F1244       F  0.60468506  0.05188246  0.05236200    -0.13210
C1245       C  0.66826050  0.27145917  0.96954329     0.24800
C1246       C  0.64923140  0.28390258  0.00017777    -0.23310
C1247       C  0.66467534  0.27778911  0.03466703     0.19710
C1248       C  0.69810460  0.25940970  0.03818907     0.24740
C1249       C  0.71663512  0.24719211  0.00738295    -0.23250
C1250       C  0.70065349  0.25222950  0.97329966     0.19640
F1251       F  0.71826319  0.24146542  0.94306193    -0.13210
F1252       F  0.65526183  0.27747377  0.93550613    -0.15570
F1253       F  0.71301548  0.25442557  0.07154824    -0.15570
F1254       F  0.64692853  0.28819596  0.06497096    -0.13210
C1255       C  0.31121675  0.27761962  0.02233534     0.24800
C1256       C  0.29601809  0.25501787  0.99599288    -0.23310
C1257       C  0.31747354  0.24380758  0.96689154     0.19710
C1258       C  0.35372057  0.25526218  0.96402685     0.24740
C1259       C  0.36872686  0.27853641  0.99005711    -0.23250
C1260       C  0.34693397  0.29024296  0.01875679     0.19640
F1261       F  0.36079951  0.31261005  0.04426398    -0.13210
F1262       F  0.29162916  0.28690952  0.05188210    -0.15570
F1263       F  0.37477775  0.24130125  0.93744694    -0.15570
F1264       F  0.30348832  0.22139808  0.94150024    -0.13210
C1265       C  0.49003884  0.26131469  0.84603093     0.24800
C1266       C  0.51915527  0.28118784  0.86134310    -0.23310
C1267       C  0.55049598  0.28860097  0.84013468     0.19710
C1268       C  0.55307094  0.27561220  0.80511068     0.24740
C1269       C  0.52389034  0.25623435  0.78988408    -0.23250
C1270       C  0.49256815  0.24876768  0.81064689     0.19640
F1271       F  0.46394410  0.23032471  0.79618706    -0.13210
F1272       F  0.45972351  0.25265543  0.86563822    -0.15570
F1273       F  0.58390209  0.28253204  0.78563472    -0.15570
F1274       F  0.57928037  0.30761011  0.85360779    -0.13210
C1275       C  0.54104981  0.24648583  0.17580754     0.24800
C1276       C  0.50903382  0.24279781  0.19659674    -0.23310
C1277       C  0.47680944  0.25942383  0.18382903     0.19710
C1278       C  0.47641972  0.27866170  0.15080786     0.24740
C1279       C  0.50841469  0.28246659  0.12979570    -0.23250
C1280       C  0.54104548  0.26687975  0.14326452     0.19640
F1281       F  0.57263169  0.26974803  0.12410521    -0.13210
F1282       F  0.57279323  0.23159215  0.18790085    -0.15570
F1283       F  0.44441893  0.29335156  0.13910780    -0.15570
F1284       F  0.44590485  0.25836388  0.20412974    -0.13210
C1285       C  0.52906293  0.15687955  0.10241911     0.24800
C1286       C  0.49977281  0.18143148  0.10020346    -0.23310
C1287       C  0.46972232  0.17746190  0.12354519     0.19710
C1288       C  0.46848245  0.14813082  0.14800893     0.24740
C1289       C  0.49716067  0.12302326  0.14878252    -0.23250
C1290       C  0.52793573  0.12825046  0.12699116     0.19640
F1291       F  0.55641361  0.10477911  0.12869515    -0.13210
F1292       F  0.55841757  0.15998254  0.07997634    -0.15570
F1293       F  0.43874285  0.14315158  0.16950688    -0.15570
F1294       F  0.44196953  0.20181742  0.12271648    -0.13210
C1295       C  0.43836287  0.13746221  0.98314366     0.24800
C1296       C  0.42533719  0.16849749  0.00023040    -0.23310
C1297       C  0.38954642  0.16857643  0.01387724     0.19710
C1298       C  0.36624043  0.13890655  0.00842164     0.24740
C1299       C  0.37840045  0.10848006  0.98940094    -0.23250
C1300       C  0.41505516  0.10777482  0.97745578     0.19640
F1301       F  0.42819299  0.07883932  0.95943078    -0.13210
F1302       F  0.47369581  0.13590337  0.97203367    -0.15570
F1303       F  0.33199716  0.13976297  0.02235367    -0.15570
F1304       F  0.37673982  0.19795537  0.03150392    -0.13210
C1305       C  0.61338156  0.15678644  0.96290418     0.24800
C1306       C  0.61694197  0.18317109  0.98949990    -0.23310
C1307       C  0.64604957  0.18081884  0.01458494     0.19710
C1308       C  0.67262639  0.15479800  0.01099628     0.24740
C1309       C  0.66971743  0.12954277  0.98368555    -0.23250
C1310       C  0.63947645  0.12961587  0.96039888     0.19640
F1311       F  0.63311004  0.10128710  0.93828446    -0.13210
F1312       F  0.58271628  0.15460991  0.94256747    -0.15570
F1313       F  0.69889351  0.15151403  0.03681484    -0.15570
F1314       F  0.64762423  0.20172305  0.04436676    -0.13210
C1315       C  0.69246166  0.03752017  0.76153337     0.24800
C1316       C  0.71283229  0.00622643  0.75378107    -0.23310
C1317       C  0.69570960  0.97899816  0.73318016     0.19710
C1318       C  0.65943688  0.98300731  0.72075159     0.24740
C1319       C  0.63886772  0.01411591  0.72883770    -0.23250
C1320       C  0.65617945  0.04139686  0.74920764     0.19640
F1321       F  0.63666194  0.07054970  0.75999890    -0.13210
F1322       F  0.70767431  0.06458313  0.78107581    -0.15570
F1323       F  0.64311828  0.95479943  0.70372345    -0.15570
F1324       F  0.71390897  0.94793507  0.72585024    -0.13210
C1325       C  0.36662598  0.05756363  0.72280865     0.24800
C1326       C  0.39231002  0.02906844  0.72642138    -0.23310
C1327       C  0.37861306  0.99448205  0.73746061     0.19710
C1328       C  0.34126886  0.98962848  0.74745213     0.24740
C1329       C  0.31672501  0.01924981  0.74717329    -0.23250
C1330       C  0.32978723  0.05280976  0.73311171     0.19640
F1331       F  0.30716883  0.08182390  0.73059332    -0.13210
F1332       F  0.37756395  0.09103928  0.71087057    -0.15570
F1333       F  0.32958381  0.95640067  0.75927055    -0.15570
F1334       F  0.40180470  0.96600491  0.74139326    -0.13210
C1335       C  0.49705049  0.19553303  0.71727228     0.24800
C1336       C  0.52538935  0.21070980  0.73809328    -0.23310
C1337       C  0.55623284  0.18931319  0.74601921     0.19710
C1338       C  0.55779860  0.15301186  0.73506796     0.24740
C1339       C  0.52835583  0.13703341  0.71640083    -0.23250
C1340       C  0.49887784  0.15935352  0.70598155     0.19640
F1341       F  0.46925286  0.14450635  0.68951009    -0.13210
F1342       F  0.46627287  0.21486478  0.71020573    -0.15570
F1343       F  0.58589068  0.13196371  0.74699791    -0.15570
F1344       F  0.58429968  0.20314687  0.76564961    -0.13210
C1345       C  0.49094555  0.87264795  0.73884580     0.24800
C1346       C  0.52656040  0.88762736  0.73614578    -0.23310
C1347       C  0.55626971  0.86347916  0.74033780     0.19710
C1348       C  0.55100098  0.82702932  0.75070240     0.24740
C1349       C  0.51574602  0.81186899  0.75399614    -0.23250
C1350       C  0.48564375  0.83497174  0.74687452     0.19640
F1351       F  0.45109938  0.82146839  0.74943159    -0.13210
F1352       F  0.46141986  0.89474166  0.73633226    -0.15570
F1353       F  0.58097046  0.80674315  0.75822124    -0.15570
F1354       F  0.59119617  0.87610821  0.73743723    -0.13210
C1355       C  0.47529827  0.16252310  0.89556143     0.24800
C1356       C  0.50917240  0.17997789  0.90216837    -0.23310
C1357       C  0.53902428  0.17146734  0.87961251     0.19710
C1358       C  0.53609908  0.14352822  0.85433677     0.24740
C1359       C  0.50325120  0.12399279  0.85078202    -0.23250
C1360       C  0.47274759  0.13416545  0.87099465     0.19640
F1361       F  0.44028162  0.11653470  0.86688491    -0.13210
F1362       F  0.44424865  0.17299705  0.91236610    -0.15570
F1363       F  0.56554280  0.13504824  0.83388553    -0.15570
F1364       F  0.57086173  0.19058440  0.88138434    -0.13210
C1365       C  0.42405833  0.02220719  0.87930499     0.24800
C1366       C  0.41252459  0.02670784  0.84329868    -0.23310
C1367       C  0.37593996  0.02437470  0.83456488     0.19710
C1368       C  0.35129883  0.01299565  0.86035895     0.24740
C1369       C  0.36182671  0.00928322  0.89604820    -0.23250
C1370       C  0.39854720  0.01353198  0.90576245     0.19640
F1371       F  0.40994918  0.00887261  0.94036535    -0.13210
F1372       F  0.45932330  0.02679388  0.88935476    -0.15570
F1373       F  0.31712036  0.00524994  0.85081038    -0.15570
F1374       F  0.36409118  0.03513970  0.80176652    -0.13210
C1375       C  0.66942740  0.98960372  0.88863580     0.24800
C1376       C  0.67686135  0.02615924  0.89500853    -0.23310
C1377       C  0.65866860  0.05351484  0.87602198     0.19710
C1378       C  0.62808168  0.04441816  0.85602641     0.24740
C1379       C  0.61638538  0.00784332  0.85502187    -0.23250
C1380       C  0.63862472  0.98012373  0.86896371     0.19640
F1381       F  0.62908839  0.94454302  0.86608917    -0.13210
F1382       F  0.69121502  0.96357249  0.90304674    -0.15570
F1383       F  0.60895079  0.07137421  0.83917827    -0.15570
F1384       F  0.66891064  0.08887839  0.87899112    -0.13210
C1385       C  0.34551650  0.74455832  0.97668706     0.24800
C1386       C  0.32315229  0.75655195  0.00515377    -0.23310
C1387       C  0.33695508  0.75396774  0.04049926     0.19710
C1388       C  0.37165032  0.73939727  0.04754269     0.24740
C1389       C  0.39527304  0.72894150  0.01911689    -0.23250
C1390       C  0.38130128  0.73146602  0.98345915     0.19640
F1391       F  0.40262410  0.72254889  0.95497474    -0.13210
F1392       F  0.33292342  0.74618647  0.94214947    -0.15570
F1393       F  0.38263852  0.73742210  0.08263353    -0.15570
F1394       F  0.31646350  0.76513205  0.06873587    -0.13210
C1395       C  0.69446411  0.75502726  0.03638584     0.24800
C1396       C  0.71584724  0.75337511  0.00474934    -0.23310
C1397       C  0.69854684  0.74250511  0.97250828     0.19710
C1398       C  0.66094745  0.73449788  0.97172319     0.24740
C1399       C  0.63920183  0.73773852  0.00286405    -0.23250
C1400       C  0.65650445  0.74757708  0.03538134     0.19640
F1401       F  0.63612709  0.75300235  0.06543035    -0.13210
F1402       F  0.70995662  0.76602532  0.06775929    -0.15570
F1403       F  0.64495000  0.72706685  0.93948029    -0.15570
F1404       F  0.71724278  0.74342312  0.94083230    -0.13210
C1405       C  0.49058695  0.73758365  0.18232175     0.24800
C1406       C  0.52288069  0.74829479  0.19986933    -0.23310
C1407       C  0.55616560  0.74596602  0.18087591     0.19710
C1408       C  0.55657089  0.73571460  0.14424055     0.24740
C1409       C  0.52393426  0.72602587  0.12642389    -0.23250
C1410       C  0.49134386  0.72518763  0.14681185     0.19640
F1411       F  0.45902365  0.71709490  0.13061435    -0.13210
F1412       F  0.45779842  0.74039083  0.19914134    -0.15570
F1413       F  0.58832733  0.73805403  0.12537407    -0.15570
F1414       F  0.58809186  0.75475940  0.19741709    -0.13210
C1415       C  0.48589721  0.75996212  0.82719422     0.24800
C1416       C  0.51577423  0.75998693  0.80305933    -0.23310
C1417       C  0.54967114  0.74735693  0.81624680     0.19710
C1418       C  0.55406737  0.73681992  0.85260862     0.24740
C1419       C  0.52511127  0.73946306  0.87751185    -0.23250
C1420       C  0.49051118  0.74993298  0.86407278     0.19640
F1421       F  0.46213248  0.75407951  0.88725705    -0.13210
F1422       F  0.45258657  0.77122363  0.81542059    -0.15570
F1423       F  0.58797313  0.72736882  0.86444489    -0.15570
F1424       F  0.57937252  0.74666421  0.79441599    -0.13210
C1425       C  0.49531200  0.85567871  0.87125328     0.24800
C1426       C  0.47343063  0.86000409  0.90206270    -0.23310
C1427       C  0.44937243  0.88951378  0.90369087     0.19710
C1428       C  0.45185533  0.91736287  0.87838281     0.24740
C1429       C  0.47948139  0.91671052  0.85262480    -0.23250
C1430       C  0.49866878  0.88448068  0.84656769     0.19640
F1431       F  0.52506997  0.88317214  0.82086503    -0.13210
F1432       F  0.51899698  0.82755842  0.86894033    -0.15570
F1433       F  0.43078840  0.94705327  0.88219603    -0.15570
F1434       F  0.42909485  0.89533110  0.93348287    -0.13210
C1435       C  0.46363923  0.89213802  0.15041526     0.24800
C1436       C  0.48739240  0.92179279  0.14374450    -0.23310
C1437       C  0.51523058  0.91883274  0.11780013     0.19710
C1438       C  0.51813845  0.88766202  0.09773955     0.24740
C1439       C  0.49236864  0.85970647  0.10168632    -0.23250
C1440       C  0.46592905  0.86111888  0.12908781     0.19640
F1441       F  0.44156400  0.83347675  0.13401741    -0.13210
F1442       F  0.43750580  0.89385872  0.17638249    -0.15570
F1443       F  0.54595201  0.88485827  0.07373664    -0.15570
F1444       F  0.54017118  0.94584096  0.11205461    -0.13210
C1445       C  0.36731642  0.87392315  0.96762599     0.24800
C1446       C  0.36945607  0.89963003  0.99508338    -0.23310
C1447       C  0.38141502  0.88935117  0.02960960     0.19710
C1448       C  0.39428055  0.85475413  0.03596384     0.24740
C1449       C  0.39984981  0.83163838  0.00674281    -0.23250
C1450       C  0.38428762  0.84024656  0.97289380     0.19640
F1451       F  0.38813531  0.81760979  0.94457019    -0.13210
F1452       F  0.35316425  0.88303395  0.93472855    -0.15570
F1453       F  0.40571936  0.84597292  0.06991212    -0.15570
F1454       F  0.38250023  0.91328119  0.05701130    -0.13210
C1455       C  0.61423720  0.94473269  0.00425519     0.24800
C1456       C  0.64812652  0.94064280  0.98729689    -0.23310
C1457       C  0.65273702  0.91303530  0.96203954     0.19710
C1458       C  0.62610449  0.88615496  0.95855648     0.24740
C1459       C  0.59360216  0.88799048  0.97870152    -0.23250
C1460       C  0.58679644  0.91892469  0.99942351     0.19640
F1461       F  0.55375684  0.92416860  0.01511236    -0.13210
F1462       F  0.60818382  0.97302142  0.02649973    -0.15570
F1463       F  0.63304854  0.85755137  0.93692916    -0.15570
F1464       F  0.68420505  0.91012388  0.94295766    -0.13210
C1465       C  0.87799334  0.77686670  0.97323618     0.24800
C1466       C  0.89795537  0.76708829  0.00452030    -0.23310
C1467       C  0.87901243  0.74934593  0.03326156     0.19710
C1468       C  0.84242002  0.73911322  0.03000134     0.24740
C1469       C  0.82220482  0.74906042  0.99922373    -0.23250
C1470       C  0.84016858  0.76836265  0.97081459     0.19640
F1471       F  0.82121896  0.77855184  0.94074786    -0.13210
F1472       F  0.89520369  0.79313414  0.94469166    -0.15570
F1473       F  0.82598731  0.72154223  0.05827637    -0.15570
F1474       F  0.89641653  0.74109057  0.06485668    -0.13210
C1475       C  0.15600608  0.76335077  0.01948482     0.24800
C1476       C  0.14417499  0.78154140  0.98753406    -0.23310
C1477       C  0.17017281  0.78517881  0.95922313     0.19710
C1478       C  0.20541826  0.76988903  0.96187587     0.24740
C1479       C  0.21699749  0.75085759  0.99323071    -0.23250
C1480       C  0.19184346  0.74848848  0.02234216     0.19640
F1481       F  0.20188522  0.73179070  0.05379366    -0.13210
F1482       F  0.13225776  0.75806692  0.04730888    -0.15570
F1483       F  0.22853373  0.77369628  0.93332222    -0.15570
F1484       F  0.16087248  0.80252525  0.92781460    -0.13210
C1485       C  0.98034536  0.77813299  0.85781147     0.24800
C1486       C  0.01515605  0.78467271  0.87315159    -0.23310
C1487       C  0.04578531  0.77952335  0.85036491     0.19710
C1488       C  0.04218195  0.76541721  0.81534997     0.24740
C1489       C  0.00766029  0.75879319  0.79996114    -0.23250
C1490       C  0.97664396  0.76658583  0.82137349     0.19640
F1491       F  0.94264733  0.76194028  0.80736260    -0.13210
F1492       F  0.95002228  0.78067573  0.87872429    -0.15570
F1493       F  0.07291313  0.75716505  0.79675598    -0.15570
F1494       F  0.08008190  0.78410814  0.86383912    -0.13210
C1495       C  0.98038236  0.75659399  0.18228963     0.24800
C1496       C  0.01514805  0.75754440  0.19831881    -0.23310
C1497       C  0.04469736  0.77162384  0.17769601     0.19710
C1498       C  0.03983825  0.78150519  0.14080686     0.24740
C1499       C  0.00487841  0.77955718  0.12475350    -0.23250
C1500       C  0.97492883  0.77014886  0.14722778     0.19640
F1501       F  0.94055702  0.76883364  0.13318890    -0.13210
F1502       F  0.95127044  0.74264798  0.20071147    -0.15570
F1503       F  0.06959528  0.78937577  0.12012094    -0.15570
F1504       F  0.07854589  0.77370147  0.19266916    -0.13210
C1505       C  0.86880160  0.25927687  0.96247819     0.24800
C1506       C  0.88895494  0.24350811  0.99131320    -0.23310
C1507       C  0.87261391  0.24125339  0.02576316     0.19710
C1508       C  0.83716879  0.25463887  0.03107449     0.24740
C1509       C  0.81749941  0.27083104  0.00222049    -0.23250
C1510       C  0.83424489  0.27388501  0.96821509     0.19640
F1511       F  0.81640491  0.28895461  0.93960253    -0.13210
F1512       F  0.88292232  0.26173410  0.92853190    -0.15570
F1513       F  0.82152776  0.25107320  0.06425979    -0.15570
F1514       F  0.89128282  0.22736934  0.05457405    -0.13210
C1515       C  0.04590528  0.26282792  0.82497688     0.24800
C1516       C  0.01687372  0.25711205  0.80083901    -0.23310
C1517       C  0.98657119  0.23653347  0.81354676     0.19710
C1518       C  0.98474296  0.22373056  0.84980992     0.24740
C1519       C  0.01254436  0.23200941  0.87496719    -0.23250
C1520       C  0.04370654  0.25062421  0.86128979     0.19640
F1521       F  0.06934093  0.26274946  0.88457637    -0.13210
F1522       F  0.07568321  0.28228901  0.81398292    -0.15570
F1523       F  0.95325660  0.20780230  0.86169309    -0.15570
F1524       F  0.95728308  0.23121499  0.79165530    -0.13210
C1525       C  0.17558093  0.24559436  0.02568035     0.24800
C1526       C  0.19226504  0.26100465  0.99475454    -0.23310
C1527       C  0.17341775  0.26150764  0.96177432     0.19710
C1528       C  0.13745538  0.24898245  0.96023437     0.24740
C1529       C  0.11954083  0.23665021  0.99164994    -0.23250
C1530       C  0.13936999  0.23339435  0.02411663     0.19640
F1531       F  0.12272386  0.22156511  0.05499557    -0.13210
F1532       F  0.19406951  0.24339242  0.05752045    -0.15570
F1533       F  0.11926841  0.25107953  0.92847059    -0.15570
F1534       F  0.18978870  0.27437670  0.93112654    -0.13210
C1535       C  0.04731328  0.26055684  0.17967344     0.24800
C1536       C  0.01287439  0.26236586  0.19671303    -0.23310
C1537       C  0.98239977  0.25011466  0.17641525     0.19710
C1538       C  0.98611462  0.23845723  0.13992030     0.24740
C1539       C  0.02067911  0.23759570  0.12251425    -0.23250
C1540       C  0.05123586  0.24796745  0.14383972     0.19640
F1541       F  0.08536747  0.24762422  0.12941974    -0.13210
F1542       F  0.07752629  0.27245294  0.19734768    -0.15570
F1543       F  0.95552015  0.22934693  0.12124482    -0.15570
F1544       F  0.94870560  0.24979442  0.19177648    -0.13210
C1545       C  0.82891698  0.54468127  0.26145892     0.24800
C1546       C  0.81345805  0.51530118  0.24267480    -0.23310
C1547       C  0.83608067  0.48532263  0.23552116     0.19710
C1548       C  0.87299629  0.48490468  0.24662313     0.24740
C1549       C  0.88845723  0.51434369  0.26524622    -0.23250
C1550       C  0.86577824  0.54417329  0.27256577     0.19640
F1551       F  0.88022289  0.57418879  0.28813309    -0.13210
F1552       F  0.80857251  0.57461671  0.26790885    -0.15570
F1553       F  0.89451715  0.45685210  0.23664610    -0.15570
F1554       F  0.82261767  0.45632602  0.21757714    -0.13210
C1555       C  0.15073024  0.52345679  0.24847753     0.24800
C1556       C  0.13477546  0.49241027  0.26516347    -0.23310
C1557       C  0.15755339  0.46172731  0.27048981     0.19710
C1558       C  0.19412644  0.46152741  0.25846171     0.24740
C1559       C  0.20960555  0.49182718  0.24024139    -0.23250
C1560       C  0.18736601  0.52296275  0.23559531     0.19640
F1561       F  0.20124689  0.55315240  0.21886516    -0.13210
F1562       F  0.13030001  0.55374067  0.24306736    -0.15570
F1563       F  0.21437438  0.43109132  0.26395765    -0.15570
F1564       F  0.14367615  0.43085207  0.28601206    -0.13210
C1565       C  0.97896995  0.66100147  0.27831542     0.24800
C1566       C  0.00719004  0.63607634  0.27223687    -0.23310
C1567       C  0.04102586  0.64930477  0.25923483     0.19710
C1568       C  0.04480050  0.68585540  0.24795821     0.24740
C1569       C  0.01512809  0.70980807  0.25046893    -0.23250
C1570       C  0.98266082  0.69731253  0.26711898     0.19640
F1571       F  0.95365906  0.71981831  0.27076283    -0.13210
F1572       F  0.94592595  0.64895990  0.29052348    -0.15570
F1573       F  0.07681211  0.69743492  0.23300749    -0.15570
F1574       F  0.06864997  0.62583022  0.25261334    -0.13210
C1575       C  0.97388972  0.36955164  0.25547434     0.24800
C1576       C  0.00416426  0.38648087  0.27228196    -0.23310
C1577       C  0.03574111  0.36529427  0.27779862     0.19710
C1578       C  0.03806012  0.32967825  0.26470982     0.24740
C1579       C  0.00817997  0.31301835  0.24716231    -0.23250
C1580       C  0.97567089  0.33320071  0.24361446     0.19640
F1581       F  0.94596140  0.31819841  0.22751757    -0.13210
F1582       F  0.94371411  0.38943482  0.24732359    -0.15570
F1583       F  0.07036239  0.31190192  0.26783858    -0.15570
F1584       F  0.06623434  0.38081705  0.29197441    -0.13210
C1585       C  0.95596130  0.40311477  0.13584582     0.24800
C1586       C  0.98467359  0.40349226  0.16106395    -0.23310
C1587       C  0.00711159  0.37298794  0.16547642     0.19710
C1588       C  0.00741641  0.34742407  0.13890366     0.24740
C1589       C  0.98461045  0.35187045  0.10878971    -0.23250
C1590       C  0.95640635  0.37747496  0.10883076     0.19640
F1591       F  0.93286871  0.38070614  0.08048648    -0.13210
F1592       F  0.93092594  0.43014280  0.13444448    -0.15570
F1593       F  0.03578697  0.32399387  0.13854487    -0.15570
F1594       F  0.03420691  0.37159204  0.19058757    -0.13210
C1595       C  0.07132467  0.59890719  0.11461517     0.24800
C1596       C  0.05236639  0.60564271  0.14678628    -0.23310
C1597       C  0.04138755  0.64132211  0.15400535     0.19710
C1598       C  0.04697750  0.66915945  0.12813386     0.24740
C1599       C  0.06383338  0.66157574  0.09496094    -0.23250
C1600       C  0.07865537  0.62683500  0.08996479     0.19640
F1601       F  0.09507957  0.61821320  0.05832369    -0.13210
F1602       F  0.07830701  0.56446093  0.10434417    -0.15570
F1603       F  0.03101840  0.70169982  0.13332171    -0.15570
F1604       F  0.01979121  0.64795762  0.18286178    -0.13210
C1605       C  0.26677743  0.52791701  0.85356076     0.24800
C1606       C  0.27475896  0.49362822  0.86933776    -0.23310
C1607       C  0.27389461  0.46315045  0.84666559     0.19710
C1608       C  0.26346638  0.46632645  0.81020112     0.24740
C1609       C  0.25437173  0.50025012  0.79464416    -0.23250
C1610       C  0.25693084  0.53118568  0.81657162     0.19640
F1611       F  0.24878238  0.56447324  0.80241086    -0.13210
F1612       F  0.26543756  0.55776685  0.87456080    -0.15570
F1613       F  0.26108285  0.43574727  0.79037403    -0.15570
F1614       F  0.28029959  0.42942869  0.86081242    -0.13210
C1615       C  0.26996290  0.46253655  0.13291597     0.24800
C1616       C  0.28878520  0.49298917  0.11805407    -0.23310
C1617       C  0.29539845  0.52241505  0.14122747     0.19710
C1618       C  0.28142724  0.52266009  0.17665873     0.24740
C1619       C  0.26250592  0.49242939  0.19145822    -0.23250
C1620       C  0.25756765  0.46199913  0.16925677     0.19640
F1621       F  0.23946307  0.43222620  0.18229607    -0.13210
F1622       F  0.26054199  0.43464222  0.11121877    -0.15570
F1623       F  0.28424672  0.55370902  0.19571530    -0.15570
F1624       F  0.31102184  0.55339490  0.12771379    -0.13210
C1625       C  0.29357575  0.64357248  0.97475978     0.24800
C1626       C  0.30035915  0.62816634  0.00954015    -0.23310
C1627       C  0.29448548  0.65130894  0.03939750     0.19710
C1628       C  0.27838565  0.68581717  0.03516321     0.24740
C1629       C  0.26940323  0.70026940  0.00085011    -0.23250
C1630       C  0.27897622  0.67930602  0.97054685     0.19640
F1631       F  0.27296948  0.69295911  0.93672083    -0.13210
F1632       F  0.29863274  0.62329291  0.94490692    -0.15570
F1633       F  0.27162961  0.70536911  0.06516997    -0.15570
F1634       F  0.30234606  0.63981102  0.07364592    -0.13210
C1635       C  0.24641420  0.36967904  0.02555417     0.24800
C1636       C  0.26601509  0.38549934  0.99641321    -0.23310
C1637       C  0.27209992  0.36407950  0.96576174     0.19710
C1638       C  0.26009345  0.32759969  0.96486088     0.24740
C1639       C  0.24110685  0.31173252  0.99439748    -0.23250
C1640       C  0.23407005  0.33342054  0.02454569     0.19640
F1641       F  0.21547443  0.31932539  0.05335279    -0.13210
F1642       F  0.23706672  0.39024148  0.05416981    -0.15570
F1643       F  0.26578443  0.30812700  0.93455739    -0.15570
F1644       F  0.28695938  0.37945361  0.93545343    -0.13210
C1645       C  0.15654989  0.54720434  0.12170140     0.24800
C1646       C  0.16738180  0.52625067  0.09272462    -0.23310
C1647       C  0.15819502  0.48920803  0.09129958     0.19710
C1648       C  0.13176786  0.47514150  0.11442054     0.24740
C1649       C  0.11706573  0.49758679  0.14042711    -0.23250
C1650       C  0.13188632  0.53235050  0.14642136     0.19640
F1651       F  0.11834462  0.55376520  0.17262669    -0.13210
F1652       F  0.16773235  0.58231595  0.12453494    -0.15570
F1653       F  0.11952926  0.44049734  0.11071126    -0.15570
F1654       F  0.17411926  0.46714642  0.06697043    -0.13210
C1655       C  0.09812167  0.40372423  0.03606391     0.24800
C1656       C  0.10830219  0.36953422  0.02345227    -0.23310
C1657       C  0.13379667  0.36697336  0.99551572     0.19710
C1658       C  0.14911476  0.39826178  0.98014995     0.24740
C1659       C  0.13905474  0.43276146  0.99268749    -0.23250
C1660       C  0.11327492  0.43521564  0.02071272     0.19640
F1661       F  0.10154366  0.46804408  0.03213132    -0.13210
F1662       F  0.07079590  0.40661937  0.06073628    -0.15570
F1663       F  0.17356849  0.39459371  0.95284449    -0.15570
F1664       F  0.14152430  0.33424274  0.98113669    -0.13210
C1665       C  0.18814985  0.65004156  0.02263515     0.24800
C1666       C  0.20632641  0.63455508  0.99336393    -0.23310
C1667       C  0.19831298  0.64608214  0.95772848     0.19710
C1668       C  0.16704576  0.66634875  0.95145090     0.24740
C1669       C  0.14366563  0.67193961  0.98039398    -0.23250
C1670       C  0.15577085  0.66784392  0.01600110     0.19640
F1671       F  0.13509600  0.67884658  0.04417218    -0.13210
F1672       F  0.19796607  0.64277810  0.05748302    -0.15570
F1673       F  0.15753128  0.67683116  0.91730930    -0.15570
F1674       F  0.21776098  0.63393004  0.92915318    -0.13210
C1675       C  0.14501930  0.47696028  0.73348268     0.24800
C1676       C  0.13218662  0.50811383  0.71477359    -0.23310
C1677       C  0.15775423  0.53649617  0.70789261     0.19710
C1678       C  0.19352957  0.53531357  0.72185820     0.24740
C1679       C  0.20609190  0.50493800  0.74183983    -0.23250
C1680       C  0.18159339  0.47519516  0.74640532     0.19640
F1681       F  0.19245318  0.44486778  0.76472856    -0.13210
F1682       F  0.12131443  0.44967530  0.74231828    -0.15570
F1683       F  0.21564519  0.56478240  0.71695856    -0.15570
F1684       F  0.14684576  0.56734794  0.69031252    -0.13210
C1685       C  0.04404432  0.33184137  0.73762925     0.24800
C1686       C  0.01527161  0.31201520  0.75429719    -0.23310
C1687       C  0.98083448  0.32850723  0.75636721     0.19710
C1688       C  0.97525175  0.36373058  0.74222893     0.24740
C1689       C  0.00466008  0.38496085  0.72845939    -0.23250
C1690       C  0.03888116  0.36793285  0.72519292     0.19640
F1691       F  0.06833317  0.38761683  0.71372155    -0.13210
F1692       F  0.07754840  0.31652014  0.73444692    -0.15570
F1693       F  0.94203696  0.37924830  0.74694097    -0.15570
F1694       F  0.95224822  0.31022657  0.77170564    -0.13210
C1695       C  0.98146678  0.65171269  0.72915274     0.24800
C1696       C  0.01228406  0.64316225  0.70762215    -0.23310
C1697       C  0.03826039  0.67148519  0.70232482     0.19710
C1698       C  0.03788427  0.70287126  0.72344361     0.24740
C1699       C  0.00781461  0.71144666  0.74548633    -0.23250
C1700       C  0.97898316  0.68560063  0.74724774     0.19640
F1701       F  0.94884091  0.69264720  0.76724147    -0.13210
F1702       F  0.95507044  0.62618710  0.73506608    -0.15570
F1703       F  0.06762943  0.72512819  0.72253440    -0.15570
F1704       F  0.06810999  0.66562317  0.68138716    -0.13210
C1705       C  0.83990946  0.53052448  0.76174652     0.24800
C1706       C  0.81945385  0.49777977  0.76043652    -0.23310
C1707       C  0.83820825  0.46620686  0.75023164     0.19710
C1708       C  0.87621365  0.46703177  0.74287390     0.24740
C1709       C  0.89668249  0.49973699  0.74395314    -0.23250
C1710       C  0.87762558  0.53165886  0.75268112     0.19640
F1711       F  0.89590560  0.56384374  0.75409123    -0.13210
F1712       F  0.82330564  0.56172283  0.77153097    -0.15570
F1713       F  0.89308502  0.43560975  0.73430628    -0.15570
F1714       F  0.81973633  0.43421237  0.74787180    -0.13210
C1715       C  0.13196168  0.58778964  0.84810069     0.24800
C1716       C  0.13131079  0.55810000  0.82481114    -0.23310
C1717       C  0.15230857  0.52717701  0.83288767     0.19710
C1718       C  0.17014060  0.52422442  0.86567275     0.24740
C1719       C  0.16671546  0.55185810  0.89095947    -0.23250
C1720       C  0.14823195  0.58385646  0.88190425     0.19640
F1721       F  0.14294746  0.60960220  0.90682874    -0.13210
F1722       F  0.11235391  0.61825453  0.84061034    -0.15570
F1723       F  0.18603760  0.49203954  0.87467511    -0.15570
F1724       F  0.15081992  0.49740538  0.81189003    -0.13210
C1725       C  0.04145674  0.37511615  0.88347710     0.24800
C1726       C  0.03819452  0.38415976  0.92010789    -0.23310
C1727       C  0.05245289  0.41742671  0.93182732     0.19710
C1728       C  0.06581990  0.44300019  0.90683939     0.24740
C1729       C  0.06319272  0.43646734  0.86951406    -0.23250
C1730       C  0.05392372  0.40114685  0.85822634     0.19640
F1731       F  0.05349255  0.39273675  0.82262019    -0.13210
F1732       F  0.02932419  0.34245084  0.87159661    -0.15570
F1733       F  0.07801487  0.47551402  0.91905685    -0.15570
F1734       F  0.05166526  0.42600466  0.96734030    -0.13210
C1735       C  0.02850380  0.65592163  0.82892149     0.24800
C1736       C  0.00276593  0.62771739  0.83099571    -0.23310
C1737       C  0.97765659  0.62535800  0.85932792     0.19710
C1738       C  0.98187077  0.64803316  0.88851464     0.24740
C1739       C  0.01223365  0.67155402  0.88958412    -0.23250
C1740       C  0.03400349  0.67734120  0.85876126     0.19640
F1741       F  0.06403060  0.69923476  0.85949358    -0.13210
F1742       F  0.05286786  0.65796097  0.80119863    -0.15570
F1743       F  0.95878134  0.64432542  0.91710740    -0.15570
F1744       F  0.95248502  0.59810313  0.86089842    -0.13210
C1745       C  0.72851489  0.36288041  0.97179572     0.24800
C1746       C  0.71946968  0.37963869  0.00455156    -0.23310
C1747       C  0.72600704  0.35910437  0.03673276     0.19710
C1748       C  0.74755360  0.32746034  0.03662499     0.24740
C1749       C  0.75859054  0.31170729  0.00406951    -0.23250
C1750       C  0.74663150  0.32889873  0.97151470     0.19640
F1751       F  0.75258765  0.31321220  0.93921109    -0.13210
F1752       F  0.72295614  0.38106302  0.94000714    -0.15570
F1753       F  0.75804447  0.31231481  0.06872349    -0.15570
F1754       F  0.71783556  0.37380146  0.06917351    -0.13210
C1755       C  0.77145642  0.68800879  0.95854614     0.24800
C1756       C  0.77136321  0.70156653  0.99367374    -0.23310
C1757       C  0.75866128  0.67874211  0.02224683     0.19710
C1758       C  0.74913312  0.64210757  0.01595173     0.24740
C1759       C  0.75070385  0.62823377  0.98075168    -0.23250
C1760       C  0.75988180  0.65249847  0.95197360     0.19640
F1761       F  0.76061995  0.64073795  0.91733699    -0.13210
F1762       F  0.78290170  0.70931325  0.93032088    -0.15570
F1763       F  0.74108531  0.61970997  0.04446563    -0.15570
F1764       F  0.75678964  0.69151791  0.05639034    -0.13210
C1765       C  0.74610967  0.53349101  0.13419862     0.24800
C1766       C  0.73469212  0.49873584  0.12298943    -0.23310
C1767       C  0.73357501  0.47050444  0.14958544     0.19710
C1768       C  0.74764249  0.47542869  0.18432702     0.24740
C1769       C  0.76043940  0.50952948  0.19530232    -0.23250
C1770       C  0.75824602  0.53892144  0.17024078     0.19640
F1771       F  0.76904212  0.57262867  0.18030608    -0.13210
F1772       F  0.74776412  0.56157775  0.10991685    -0.15570
F1773       F  0.74972723  0.44614347  0.20705789    -0.15570
F1774       F  0.72104005  0.43681097  0.14123500    -0.13210
C1775       C  0.76202110  0.46602009  0.82811417     0.24800
C1776       C  0.76457218  0.49792076  0.80648317    -0.23310
C1777       C  0.75034074  0.53020920  0.82056409     0.19710
C1778       C  0.73486986  0.53081952  0.85538520     0.24740
C1779       C  0.73434587  0.49954533  0.87811181    -0.23250
C1780       C  0.74759010  0.46691904  0.86359744     0.19640
F1781       F  0.74975827  0.43662827  0.88500915    -0.13210
F1782       F  0.77469249  0.43413335  0.81531861    -0.15570
F1783       F  0.72418286  0.56325619  0.86868692    -0.15570
F1784       F  0.75279513  0.56178733  0.80116939    -0.13210
C1785       C  0.87852698  0.51986308  0.87310464     0.24800
C1786       C  0.87500174  0.49550528  0.90252692    -0.23310
C1787       C  0.90121302  0.46796575  0.90843747     0.19710
C1788       C  0.93146681  0.46616978  0.88626105     0.24740
C1789       C  0.93608415  0.49226443  0.85889717    -0.23250
C1790       C  0.90944262  0.51856339  0.85168214     0.19640
F1791       F  0.91401857  0.54354981  0.82458174    -0.13210
F1792       F  0.85322011  0.54602045  0.86628714    -0.15570
F1793       F  0.95774901  0.44103415  0.89340604    -0.15570
F1794       F  0.89959230  0.44488741  0.93748416    -0.13210
C1795       C  0.89125231  0.48904548  0.08583822     0.24800
C1796       C  0.85775657  0.50404268  0.09595939    -0.23310
C1797       C  0.85726584  0.53237212  0.12086889     0.19710
C1798       C  0.88950942  0.54282704  0.13826733     0.24740
C1799       C  0.92285436  0.52689805  0.12852703    -0.23250
C1800       C  0.92356606  0.50195272  0.10028743     0.19640
F1801       F  0.95562780  0.48849850  0.08777774    -0.13210
F1802       F  0.89325758  0.46229995  0.06133753    -0.15570
F1803       F  0.88785960  0.56730138  0.16526551    -0.15570
F1804       F  0.82567944  0.54960383  0.12852408    -0.13210
C1805       C  0.87819706  0.33736109  0.01939658     0.24800
C1806       C  0.89249390  0.33845888  0.98383105    -0.23310
C1807       C  0.87523477  0.35908733  0.95677869     0.19710
C1808       C  0.84859180  0.38367956  0.96687737     0.24740
C1809       C  0.84054804  0.38764569  0.00372215    -0.23250
C1810       C  0.85236661  0.36240898  0.02937210     0.19640
F1811       F  0.84301666  0.36539190  0.06474561    -0.13210
F1812       F  0.89333000  0.31605247  0.04578304    -0.15570
F1813       F  0.83366479  0.40626023  0.94150519    -0.15570
F1814       F  0.88761902  0.35934423  0.92215588    -0.13210
C1815       C  0.91682182  0.63578174  0.03112046     0.24800
C1816       C  0.94996193  0.63045008  0.01239292    -0.23310
C1817       C  0.95451230  0.59938760  0.99152263     0.19710
C1818       C  0.92644693  0.57417664  0.98917716     0.24740
C1819       C  0.89355740  0.57940880  0.00792302    -0.23250
C1820       C  0.88858232  0.61036195  0.02864920     0.19640
F1821       F  0.85683438  0.61562637  0.04683479    -0.13210
F1822       F  0.91138958  0.66584529  0.05113721    -0.15570
F1823       F  0.93106943  0.54495379  0.96769399    -0.15570
F1824       F  0.98612968  0.59320737  0.97342241    -0.13210
C1825       C  0.27186627  0.53292774  0.66598922     0.24800
C1826       C  0.26523112  0.50322999  0.68987618    -0.23310
C1827       C  0.24589594  0.47311331  0.67629245     0.19710
C1828       C  0.23329831  0.47275539  0.64037082     0.24740
C1829       C  0.24033223  0.50202447  0.61612723    -0.23250
C1830       C  0.25974992  0.53225554  0.62955505     0.19640
F1831       F  0.26941312  0.55998293  0.60670051    -0.13210
F1832       F  0.29022678  0.56258497  0.67786403    -0.15570
F1833       F  0.21632658  0.44232127  0.62832588    -0.15570
F1834       F  0.23969406  0.44343073  0.69783594    -0.13210
C1835       C  0.23118887  0.53365927  0.34198961     0.24800
C1836       C  0.23485865  0.50606351  0.36876524    -0.23310
C1837       C  0.25255484  0.47375787  0.35862309     0.19710
C1838       C  0.26633065  0.46944383  0.32312848     0.24740
C1839       C  0.26359015  0.49765530  0.29690898    -0.23250
C1840       C  0.24565558  0.52975919  0.30699241     0.19640
F1841       F  0.24346008  0.55823898  0.28323745    -0.13210
F1842       F  0.21665533  0.56618106  0.35093632    -0.15570
F1843       F  0.28307620  0.43791131  0.31461707    -0.15570
F1844       F  0.25936232  0.44755589  0.38400669    -0.13210
C1845       C  0.24406619  0.69948214  0.46615031     0.24800
C1846       C  0.26021586  0.70716869  0.49975856    -0.23310
C1847       C  0.25860787  0.68012662  0.52723978     0.19710
C1848       C  0.24234055  0.64581892  0.52074063     0.24740
C1849       C  0.22704493  0.63793533  0.48657966    -0.23250
C1850       C  0.22671888  0.66615031  0.46012904     0.19640
F1851       F  0.21159953  0.66061835  0.42706628    -0.13210
F1852       F  0.24535615  0.72433049  0.43858858    -0.15570
F1853       F  0.24388918  0.61962257  0.54703204    -0.15570
F1854       F  0.27319908  0.68679532  0.56025404    -0.13210
C1855       C  0.23530101  0.37044418  0.52771413     0.24800
C1856       C  0.23189421  0.39116827  0.49539022    -0.23310
C1857       C  0.23599650  0.37325034  0.46237334     0.19710
C1858       C  0.24768911  0.33672014  0.46186455     0.24740
C1859       C  0.25343321  0.31683865  0.49435275    -0.23250
C1860       C  0.24533202  0.33364776  0.52717659     0.19640
F1861       F  0.24897070  0.31491103  0.55895328    -0.13210
F1862       F  0.23188090  0.38683464  0.56015479    -0.15570
F1863       F  0.25537011  0.32142723  0.42963593    -0.15570
F1864       F  0.23356494  0.39237046  0.43074179    -0.13210
C1865       C  0.48571328  0.68428909  0.76269548     0.24800
C1866       C  0.51431394  0.70584589  0.74771969    -0.23310
C1867       C  0.54949586  0.69073134  0.74759037     0.19710
C1868       C  0.55642355  0.65620200  0.76294443     0.24740
C1869       C  0.52779322  0.63337197  0.77638914    -0.23250
C1870       C  0.49213360  0.64827099  0.77593143     0.19640
F1871       F  0.46328427  0.62784523  0.78757354    -0.13210
F1872       F  0.45135445  0.69794941  0.76406099    -0.15570
F1873       F  0.59165219  0.64466795  0.76294862    -0.15570
F1874       F  0.57795867  0.70992532  0.73325995    -0.13210
C1875       C  0.65913390  0.53499819  0.76249949     0.24800
C1876       C  0.63695023  0.50437140  0.77125384    -0.23310
C1877       C  0.65380108  0.46996644  0.76984340     0.19710
C1878       C  0.69124456  0.46659714  0.75970535     0.24740
C1879       C  0.71231698  0.49733016  0.74864967    -0.23250
C1880       C  0.69539816  0.53147286  0.75025279     0.19640
F1881       F  0.71406868  0.56185852  0.73967618    -0.13210
F1882       F  0.64449390  0.56883791  0.76309408    -0.15570
F1883       F  0.70660317  0.43311591  0.75967896    -0.15570
F1884       F  0.63365474  0.43950323  0.77655335    -0.13210
C1885       C  0.37100159  0.52641383  0.76794019     0.24800
C1886       C  0.38610557  0.49127103  0.77262177    -0.23310
C1887       C  0.36311571  0.46140918  0.76363374     0.19710
C1888       C  0.32834063  0.46641837  0.74810380     0.24740
C1889       C  0.31349046  0.50120500  0.74301121    -0.23250
C1890       C  0.33492325  0.53120937  0.75408686     0.19640
F1891       F  0.32120943  0.56531056  0.75082611    -0.13210
F1892       F  0.39149821  0.55623727  0.77541126    -0.15570
F1893       F  0.30919457  0.43675365  0.73740799    -0.15570
F1894       F  0.37485162  0.42665283  0.76818389    -0.13210
C1895       C  0.49280084  0.36483795  0.77425607     0.24800
C1896       C  0.52213428  0.38889767  0.76706565    -0.23310
C1897       C  0.55194373  0.37595248  0.74699650     0.19710
C1898       C  0.55196688  0.34037220  0.73363595     0.24740
C1899       C  0.52191464  0.31690702  0.73957752    -0.23250
C1900       C  0.49241871  0.32956369  0.76027314     0.19640
F1901       F  0.46226405  0.30837784  0.76535161    -0.13210
F1902       F  0.46249179  0.37697769  0.79135669    -0.15570
F1903       F  0.58114493  0.32905570  0.71425518    -0.15570
F1904       F  0.57956458  0.39900358  0.73740835    -0.13210
C1905       C  0.37691481  0.48575634  0.64981720     0.24800
C1906       C  0.40584060  0.50958233  0.65658416    -0.23310
C1907       C  0.42088440  0.53086345  0.62818728     0.19710
C1908       C  0.40681223  0.52851879  0.59350511     0.24740
C1909       C  0.37612676  0.50659415  0.58712291    -0.23250
C1910       C  0.36182348  0.48442122  0.61545298     0.19640
F1911       F  0.33321235  0.46136721  0.61016577    -0.13210
F1912       F  0.36343306  0.46360345  0.67640302    -0.15570
F1913       F  0.42315161  0.54793753  0.56640261    -0.15570
F1914       F  0.45038290  0.55273435  0.63344146    -0.13210
C1915       C  0.78667480  0.64899333  0.48117046     0.24800
C1916       C  0.79339773  0.63494022  0.51654190    -0.23310
C1917       C  0.78667764  0.65883883  0.54550402     0.19710
C1918       C  0.77061755  0.69319420  0.53981121     0.24740
C1919       C  0.76315848  0.70692310  0.50486446    -0.23250
C1920       C  0.77246353  0.68466320  0.47546723     0.19640
F1921       F  0.76692408  0.69709176  0.44112416    -0.13210
F1922       F  0.79197422  0.62764557  0.45211260    -0.15570
F1923       F  0.76160723  0.71296799  0.56908554    -0.15570
F1924       F  0.79341594  0.64816660  0.58023356    -0.13210
C1925       C  0.79504157  0.52907361  0.64955885     0.24800
C1926       C  0.78908247  0.49972764  0.62610071    -0.23310
C1927       C  0.77246781  0.46813734  0.64116209     0.19710
C1928       C  0.76144508  0.46635384  0.67792905     0.24740
C1929       C  0.76593404  0.49641018  0.70072308    -0.23250
C1930       C  0.78331869  0.52764435  0.68593293     0.19640
F1931       F  0.78672570  0.55797839  0.70600893    -0.13210
F1932       F  0.80855708  0.56099451  0.63601480    -0.15570
F1933       F  0.74507519  0.43557887  0.69086981    -0.15570
F1934       F  0.76388839  0.44005025  0.61937402    -0.13210
C1935       C  0.77835904  0.36920855  0.46549440     0.24800
C1936       C  0.78083726  0.38947174  0.49762373    -0.23310
C1937       C  0.77090268  0.37130845  0.53015968     0.19710
C1938       C  0.75824769  0.33466644  0.53034254     0.24740
C1939       C  0.75439001  0.31511913  0.49787800    -0.23250
C1940       C  0.76544089  0.33290679  0.46561745     0.19640
F1941       F  0.76294825  0.31529848  0.43376398    -0.13210
F1942       F  0.78612764  0.38566892  0.43319497    -0.15570
F1943       F  0.74914535  0.31854043  0.56238902    -0.15570
F1944       F  0.77099018  0.38981637  0.56155550    -0.13210
C1945       C  0.75670390  0.54135204  0.32411489     0.24800
C1946       C  0.76053666  0.51162746  0.30082781    -0.23310
C1947       C  0.77972429  0.48103639  0.31415613     0.19710
C1948       C  0.79263336  0.47928861  0.35007173     0.24740
C1949       C  0.78650329  0.50780568  0.37439031    -0.23250
C1950       C  0.76980225  0.53961572  0.36025717     0.19640
F1951       F  0.76218959  0.56739943  0.38265429    -0.13210
F1952       F  0.73919204  0.57173565  0.31222449    -0.15570
F1953       F  0.80762268  0.44772306  0.36245112    -0.15570
F1954       F  0.78455647  0.45184686  0.29277712    -0.13210
C1955       C  0.62640018  0.51643213  0.58917653     0.24800
C1956       C  0.65957733  0.53427246  0.59672513    -0.23310
C1957       C  0.66537313  0.54994031  0.63047869     0.19710
C1958       C  0.63705168  0.54999706  0.65560010     0.24740
C1959       C  0.60317297  0.53380406  0.64715505    -0.23250
C1960       C  0.59835881  0.51626040  0.61421495     0.19640
F1961       F  0.56628234  0.49946388  0.60596142    -0.13210
F1962       F  0.62080507  0.49969475  0.55718146    -0.15570
F1963       F  0.64188856  0.56809545  0.68690139    -0.15570
F1964       F  0.69730093  0.56729901  0.63809402    -0.13210
C1965       C  0.68598810  0.75427064  0.47524781     0.24800
C1966       C  0.71108797  0.75674999  0.50418954    -0.23310
C1967       C  0.69917617  0.77379781  0.53584599     0.19710
C1968       C  0.66317080  0.78663922  0.53910854     0.24740
C1969       C  0.63724637  0.78268765  0.51095976    -0.23250
C1970       C  0.64972577  0.76742255  0.47838269     0.19640
F1971       F  0.62617618  0.76272926  0.45041287    -0.13210
F1972       F  0.69654849  0.73895565  0.44384893    -0.15570
F1973       F  0.65320587  0.80182114  0.57079930    -0.15570
F1974       F  0.72252839  0.77784132  0.56408515    -0.13210
C1975       C  0.47580024  0.76581828  0.63986729     0.24800
C1976       C  0.50715235  0.78089425  0.62287684    -0.23310
C1977       C  0.53868943  0.78526191  0.64438666     0.19710
C1978       C  0.53976908  0.77286435  0.68058494     0.24740
C1979       C  0.50862474  0.75757573  0.69762022    -0.23250
C1980       C  0.47631926  0.75499103  0.67687418     0.19640
F1981       F  0.44562821  0.74042210  0.69200052    -0.13210
F1982       F  0.44558915  0.75860743  0.61978808    -0.15570
F1983       F  0.57231453  0.77364722  0.69808494    -0.15570
F1984       F  0.57026068  0.79736729  0.62884640    -0.13210
C1985       C  0.36983674  0.76348171  0.46976264     0.24800
C1986       C  0.39000593  0.77497458  0.50013863    -0.23310
C1987       C  0.37149135  0.77667918  0.53347724     0.19710
C1988       C  0.33393611  0.76691217  0.53606790     0.24740
C1989       C  0.31473571  0.75325867  0.50587117    -0.23250
C1990       C  0.33353063  0.75150754  0.47284849     0.19640
F1991       F  0.31661904  0.73862446  0.44299226    -0.13210
F1992       F  0.38653672  0.76108669  0.43708093    -0.15570
F1993       F  0.31665740  0.76945253  0.56838369    -0.15570
F1994       F  0.39013336  0.78575372  0.56379665    -0.13210
C1995       C  0.47255976  0.76925633  0.34879567     0.24800
C1996       C  0.50150688  0.77074750  0.37412600    -0.23310
C1997       C  0.53631548  0.75923653  0.36251613     0.19710
C1998       C  0.54117659  0.74449447  0.32766017     0.24740
C1999       C  0.51142128  0.74071763  0.30354194    -0.23250
C2000       C  0.47733248  0.75433856  0.31443772     0.19640
F2001       F  0.44825799  0.75344326  0.29166391    -0.13210
F2002       F  0.43850753  0.78006908  0.35841382    -0.15570
F2003       F  0.57495579  0.73340100  0.31762228    -0.15570
F2004       F  0.56508546  0.75970785  0.38575304    -0.13210
C2005       C  0.38633652  0.66011260  0.46584795     0.24800
C2006       C  0.41592209  0.64934388  0.48806397    -0.23310
C2007       C  0.40865139  0.62781036  0.51910548     0.19710
C2008       C  0.37306575  0.61553907  0.52646247     0.24740
C2009       C  0.34471945  0.62252653  0.50163612    -0.23250
C2010       C  0.35113818  0.64728414  0.47290044     0.19640
F2011       F  0.32370388  0.65728343  0.45003638    -0.13210
F2012       F  0.39132758  0.68237936  0.43653032    -0.15570
F2013       F  0.36667696  0.59550959  0.55699177    -0.15570
F2014       F  0.43607514  0.61757138  0.54169708    -0.13210
C2015       C  0.49856036  0.64861665  0.61190903     0.24800
C2016       C  0.53415328  0.65617130  0.60025796    -0.23310
C2017       C  0.56353666  0.65453954  0.62433251     0.19710
C2018       C  0.55792123  0.64123550  0.65910408     0.24740
C2019       C  0.52281871  0.62896541  0.66944839    -0.23250
C2020       C  0.49273728  0.63502636  0.64652742     0.19640
F2021       F  0.45811885  0.62607437  0.65681086    -0.13210
F2022       F  0.46947629  0.65571306  0.59013865    -0.15570
F2023       F  0.58712003  0.63828706  0.68172574    -0.15570
F2024       F  0.59741991  0.66615219  0.61415037    -0.13210
C2025       C  0.68797847  0.65590199  0.53223592     0.24800
C2026       C  0.69391002  0.63383954  0.50207901    -0.23310
C2027       C  0.67174323  0.63814548  0.47139236     0.19710
C2028       C  0.64076499  0.65948738  0.47328337     0.24740
C2029       C  0.63444979  0.68122012  0.50317312    -0.23250
C2030       C  0.65942372  0.68060651  0.53207018     0.19640
F2031       F  0.65432066  0.70123681  0.56171453    -0.13210
F2032       F  0.70753219  0.65137977  0.56321521    -0.15570
F2033       F  0.61425502  0.65445108  0.44868512    -0.15570
F2034       F  0.67700549  0.61820635  0.44134694    -0.13210
C2035       C  0.65630571  0.46636076  0.24111857     0.24800
C2036       C  0.63387089  0.49491553  0.22795464    -0.23310
C2037       C  0.64948495  0.53011569  0.22599242     0.19710
C2038       C  0.68592326  0.53648795  0.23769302     0.24740
C2039       C  0.70742664  0.50807476  0.25256103    -0.23250
C2040       C  0.69203214  0.47294878  0.25374215     0.19640
F2041       F  0.71147817  0.44470127  0.26778863    -0.13210
F2042       F  0.64298875  0.43182810  0.24337795    -0.15570
F2043       F  0.70002945  0.57065266  0.23514269    -0.15570
F2044       F  0.62893970  0.55871127  0.21456009    -0.13210
C2045       C  0.37299963  0.52752555  0.23551383     0.24800
C2046       C  0.39256030  0.49594091  0.22620347    -0.23310
C2047       C  0.37303511  0.46266687  0.22766219     0.19710
C2048       C  0.33540902  0.46138736  0.23764695     0.24740
C2049       C  0.31688787  0.49293324  0.24896941    -0.23250
C2050       C  0.33663064  0.52585149  0.24808995     0.19640
F2051       F  0.32047478  0.55688906  0.25908788    -0.13210
F2052       F  0.39003970  0.56037182  0.23440963    -0.15570
F2053       F  0.31741926  0.42900418  0.23762257    -0.15570
F2054       F  0.39076434  0.43117407  0.22107419    -0.13210
C2055       C  0.48423399  0.35649539  0.24155254     0.24800
C2056       C  0.51606773  0.37297313  0.22688606    -0.23310
C2057       C  0.54684299  0.35051139  0.22220785     0.19710
C2058       C  0.54648678  0.31363116  0.23355789     0.24740
C2059       C  0.51515934  0.29769556  0.24962586    -0.23250
C2060       C  0.48379418  0.31954407  0.25278286     0.19640
F2061       F  0.45288240  0.30540333  0.26786632    -0.13210
F2062       F  0.45462978  0.37730547  0.24866941    -0.15570
F2063       F  0.57762674  0.29400335  0.23072714    -0.15570
F2064       F  0.57877010  0.36544193  0.21023223    -0.13210
C2065       C  0.53888206  0.63507115  0.22487176     0.24800
C2066       C  0.50364519  0.62038076  0.21814771    -0.23310
C2067       C  0.47348008  0.64216324  0.22796976     0.19710
C2068       C  0.47804362  0.67585314  0.24513079     0.24740
C2069       C  0.51299818  0.69059260  0.25203154    -0.23250
C2070       C  0.54340824  0.66974523  0.24105281     0.19640
F2071       F  0.57774305  0.68270631  0.24667967    -0.13210
F2072       F  0.56901057  0.61508067  0.21775661    -0.15570
F2073       F  0.44765613  0.69433082  0.25453779    -0.15570
F2074       F  0.43879613  0.63026489  0.22191450    -0.13210
C2075       C  0.38877718  0.58703539  0.34850351     0.24800
C2076       C  0.40446530  0.55436484  0.33751074    -0.23310
C2077       C  0.39215983  0.52087110  0.35169680     0.19710
C2078       C  0.36658397  0.52018261  0.37913521     0.24740
C2079       C  0.35338433  0.55291077  0.39225079    -0.23250
C2080       C  0.36315971  0.58627935  0.37623220     0.19640
F2081       F  0.34955172  0.61788316  0.38879538    -0.13210
F2082       F  0.40024635  0.61950432  0.33450878    -0.15570
F2083       F  0.35587684  0.48779381  0.39407205    -0.15570
F2084       F  0.40605875  0.48901974  0.33998363    -0.13210
C2085       C  0.56906239  0.65582536  0.37324448     0.24800
C2086       C  0.53696308  0.66829918  0.38953444    -0.23310
C2087       C  0.50427843  0.66897018  0.36965016     0.19710
C2088       C  0.50206016  0.65022489  0.33767799     0.24740
C2089       C  0.53167975  0.62905260  0.32753737    -0.23250
C2090       C  0.56621719  0.63496650  0.34251030     0.19640
F2091       F  0.59568435  0.61613008  0.33090033    -0.13210
F2092       F  0.60258720  0.66307910  0.38662809    -0.15570
F2093       F  0.46895386  0.64595266  0.32162874    -0.15570
F2094       F  0.47345374  0.68389287  0.38310203    -0.13210
C2095       C  0.66700569  0.50793650  0.37354685     0.24800
C2096       C  0.65352011  0.52866994  0.40228473    -0.23310
C2097       C  0.61557464  0.53453764  0.40478064     0.19710
C2098       C  0.59218360  0.52007253  0.37954072     0.24740
C2099       C  0.60595680  0.50220650  0.34950801    -0.23250
C2100       C  0.64322460  0.49510845  0.34708746     0.19640
F2101       F  0.65633455  0.47517166  0.31974663    -0.13210
F2102       F  0.70266536  0.49897038  0.37143155    -0.15570
F2103       F  0.55574576  0.52338242  0.38483749    -0.15570
F2104       F  0.60045769  0.55339962  0.43222329    -0.13210
C2105       C  0.55448667  0.24051494  0.63797310     0.24800
C2106       C  0.52395708  0.24647773  0.61547852    -0.23310
C2107       C  0.49305099  0.26380581  0.62973073     0.19710
C2108       C  0.49344894  0.27629819  0.66535966     0.24740
C2109       C  0.52447594  0.27111575  0.68729450    -0.23250
C2110       C  0.55505408  0.25335465  0.67316983     0.19640
F2111       F  0.58556903  0.24846743  0.69365171    -0.13210
F2112       F  0.58496895  0.22454206  0.62476067    -0.15570
F2113       F  0.46343348  0.29300417  0.67865910    -0.15570
F2114       F  0.46357445  0.27098868  0.60844214    -0.13210
C2115       C  0.48030157  0.22138941  0.35162954     0.24800
C2116       C  0.51091098  0.22667913  0.37403675    -0.23310
C2117       C  0.54356867  0.23980848  0.35834114     0.19710
C2118       C  0.54481830  0.24972016  0.32147938     0.24740
C2119       C  0.51323679  0.24721762  0.29993031    -0.23250
C2120       C  0.48112875  0.23244197  0.31526762     0.19640
F2121       F  0.44981351  0.23081104  0.29559531    -0.13210
F2122       F  0.44794891  0.21026277  0.36627374    -0.15570
F2123       F  0.57641742  0.26314194  0.30717898    -0.15570
F2124       F  0.57301521  0.24676057  0.37957389    -0.13210
C2125       C  0.35281597  0.23585317  0.45588949     0.24800
C2126       C  0.37920941  0.24066761  0.48352228    -0.23310
C2127       C  0.36775165  0.25881406  0.51491329     0.19710
C2128       C  0.33165442  0.27258586  0.51784435     0.24740
C2129       C  0.30587227  0.26853381  0.48954683    -0.23250
C2130       C  0.31729783  0.25003919  0.45857395     0.19640
F2131       F  0.29384194  0.24589267  0.43042661    -0.13210
F2132       F  0.36190300  0.21845219  0.42511012    -0.15570
F2133       F  0.32190732  0.28982129  0.54846301    -0.15570
F2134       F  0.39197975  0.26507700  0.54197797    -0.13210
C2135       C  0.64702579  0.24275596  0.52729129     0.24800
C2136       C  0.62863458  0.23644533  0.49425040    -0.23310
C2137       C  0.64901017  0.24246413  0.46222131     0.19710
C2138       C  0.68586366  0.25491499  0.46327920     0.24740
C2139       C  0.70314978  0.26338427  0.49634172    -0.23250
C2140       C  0.68315592  0.25653204  0.52831257     0.19640
F2141       F  0.69819515  0.26414744  0.56087871    -0.13210
F2142       F  0.62853279  0.23899982  0.55895944    -0.15570
F2143       F  0.70433870  0.25980941  0.43173751    -0.15570
F2144       F  0.63242150  0.23860496  0.42966555    -0.13210
C2145       C  0.45826452  0.37244270  0.36940706     0.24800
C2146       C  0.48880080  0.36203009  0.38985672    -0.23310
C2147       C  0.52033063  0.38371232  0.39015849     0.19710
C2148       C  0.52009064  0.41763013  0.37366997     0.24740
C2149       C  0.48924619  0.42905014  0.35406396    -0.23250
C2150       C  0.45885702  0.40567258  0.35064863     0.19640
F2151       F  0.42953767  0.41557415  0.33021723    -0.13210
F2152       F  0.42729991  0.35183641  0.36980627    -0.15570
F2153       F  0.55035246  0.43891407  0.37658237    -0.15570
F2154       F  0.55036441  0.37319633  0.40925026    -0.13210
C2155       C  0.39471855  0.42240814  0.49216302     0.24800
C2156       C  0.35778961  0.41897499  0.48384618    -0.23310
C2157       C  0.34367043  0.38582489  0.47230303     0.19710
C2158       C  0.36577454  0.35511510  0.47267198     0.24740
C2159       C  0.40180605  0.35762677  0.48539526    -0.23250
C2160       C  0.41670939  0.39227084  0.49169030     0.19640
F2161       F  0.45284787  0.39853929  0.49271814    -0.13210
F2162       F  0.40972783  0.45508533  0.50067389    -0.15570
F2163       F  0.35287067  0.32381382  0.45870656    -0.15570
F2164       F  0.30960559  0.38401668  0.45855293    -0.13210
C2165       C  0.52753846  0.38635862  0.60507024     0.24800
C2166       C  0.49526788  0.37028696  0.59206380    -0.23310
C2167       C  0.46124751  0.38048148  0.60577534     0.19710
C2168       C  0.45948075  0.40756790  0.63162947     0.24740
C2169       C  0.49165941  0.42497428  0.64303626    -0.23250
C2170       C  0.52572866  0.41361051  0.63059940     0.19640
F2171       F  0.55700425  0.42968662  0.64234411    -0.13210
F2172       F  0.56057411  0.37743143  0.59113433    -0.15570
F2173       F  0.42642322  0.41782791  0.64447513    -0.15570
F2174       F  0.42988589  0.36585190  0.59251492    -0.13210
C2175       C  0.58364175  0.41357238  0.48883594     0.24800
C2176       C  0.59630752  0.37883820  0.49852058    -0.23310
C2177       C  0.63349162  0.37106933  0.50116725     0.19710
C2178       C  0.65843001  0.39845667  0.49368653     0.24740
C2179       C  0.64566798  0.43323366  0.48453989    -0.23250
C2180       C  0.60852567  0.44101950  0.48219461     0.19640
F2181       F  0.59665542  0.47495970  0.47324478    -0.13210
F2182       F  0.54729602  0.42080001  0.48619302    -0.15570
F2183       F  0.69471872  0.39143482  0.49620410    -0.15570
F2184       F  0.64534439  0.33706220  0.50982506    -0.13210
loop_ 
_geom_bond_atom_site_label_1 
_geom_bond_atom_site_label_2 
_geom_bond_distance 
_geom_bond_site_symmetry_2 
_ccdc_geom_bond_type 
O1            C9   1.300       .  A
O1          Co21   2.078       .  S
O2           C10   1.267       .  A
O2          Co22   1.881       .  S
O3           C11   1.257       .  A
O3          Co23   1.989       .  S
O4           C12   1.312       .  A
O4          Co24   2.131       .  S
O5           C11   1.243       .  A
O5          Co22   1.977       .  S
O6           C12   1.263       .  A
O6          Co21   1.847       .  S
O7           C10   1.320       .  A
O7          Co24   2.185       .  S
O8            C9   1.269       .  A
O8          Co23   1.873       .  S
C9         C2166   1.448       .  S
C10        C2126   1.515       .  S
C11        C2159   1.458       .  S
C12        C2106   1.468       .  S
O13          C26   1.229       .  A
O13         Co21   1.917       .  S
O14          C27   1.293       .  A
O14         Co22   2.034       .  S
O15          C28   1.237       .  A
O15         Co23   1.925       .  S
O16          C29   1.295       .  A
O16         Co24   2.104       .  S
O17          C29   1.261       .  A
O17         Co22   1.883       .  S
O18          C28   1.243       .  A
O18         Co21   1.956       .  S
O19          C26   1.281       .  A
O19         Co24   2.106       .  S
O20          C27   1.275       .  A
O20         Co23   1.964       .  S
Co21         O25   1.954       .  S
Co22         O25   1.875       .  S
Co23         O25   1.840       .  S
Co24         O25   2.112       .  S
C26        C2136   1.504       .  S
C27        C2146   1.434       .  S
C28        C2176   1.412       .  S
C29        C2116   1.465       .  S
O30          C38   1.255       .  A
O30         Co50   1.946       .  S
O31          C39   1.247       .  A
O31         Co51   1.954       .  S
O32          C40   1.277       .  A
O32         Co52   2.069       .  S
O33          C41   1.346       .  A
O33         Co53   2.239       .  S
O34          C40   1.250       .  A
O34         Co51   1.910       .  S
O35          C41   1.273       .  A
O35         Co50   1.799       .  S
O36          C39   1.297       .  A
O36         Co53   2.124       .  S
O37          C38   1.274       .  A
O37         Co52   2.009       .  S
C38        C2149   1.447       .  S
C39        C2046   1.511       .  S
C40        C2076   1.438       .  S
C41        C2056   1.493       .  S
O42          C55   1.247       .  A
O42         Co50   1.969       .  S
O43          C56   1.289       .  A
O43         Co51   2.049       .  S
O44          C57   1.260       .  A
O44         Co52   1.947       .  S
O45          C58   1.274       .  A
O45         Co53   2.091       .  S
O46          C58   1.242       .  A
O46         Co51   1.945       .  S
O47          C57   1.275       .  A
O47         Co50   2.022       .  S
O48          C55   1.266       .  A
O48         Co53   2.042       .  S
O49          C56   1.280       .  A
O49         Co52   1.856       .  S
Co50         O54   1.866       .  S
Co51         O54   1.943       .  S
Co52         O54   1.951       .  S
Co53         O54   2.012       .  S
C55        C2036   1.510       .  S
C56        C2089   1.428       .  S
C57        C2099   1.447       .  S
C58        C2066   1.531       .  S
O59          C67   1.291       .  A
O59         Co79   1.901       .  S
O60          C68   1.311       .  A
O60         Co80   2.166       .  S
O61          C69   1.259       .  A
O61         Co81   1.856       .  S
O62          C70   1.237       .  A
O62         Co82   1.965       .  S
O63          C69   1.323       .  A
O63         Co80   2.186       .  S
O64          C70   1.252       .  A
O64         Co79   2.015       .  S
O65          C68   1.266       .  A
O65         Co82   1.902       .  S
O66          C67   1.292       .  A
O66         Co81   2.052       .  S
C67        C2086   1.449       .  S
C68        C1969   1.515       .  S
C69        C1996   1.504       .  S
C70        C2029   1.462       .  S
O71          C84   1.281       .  A
O71         Co79   1.993       .  S
O72          C85   1.275       .  A
O72         Co80   2.084       .  S
O73          C86   1.246       .  A
O73         Co81   1.962       .  S
O74          C87   1.255       .  A
O74         Co82   1.894       .  S
O75          C87   1.302       .  A
O75         Co80   2.149       .  S
O76          C86   1.251       .  A
O76         Co79   1.998       .  S
O77          C84   1.289       .  A
O77         Co82   1.993       .  S
O78          C85   1.233       .  A
O78         Co81   1.912       .  S
Co79         O83   1.891       .  S
Co80         O83   2.140       .  S
Co81         O83   1.930       .  S
Co82         O83   1.873       .  S
C84        C2016   1.420       .  S
C85        C1986   1.494       .  S
C86        C2006   1.480       .  S
C87        C1976   1.491       .  S
O88          C96   1.305       .  A
O88        Co108   2.079       .  S
O89          C97   1.271       .  A
O89        Co109   1.903       .  S
O90          C98   1.249       .  A
O90        Co110   1.996       .  S
O91          C99   1.332       .  A
O91        Co111   2.210       .  S
O92          C98   1.241       .  A
O92        Co109   1.978       .  S
O93          C99   1.262       .  A
O93        Co108   1.826       .  S
O94          C97   1.316       .  A
O94        Co111   2.174       .  S
O95          C96   1.273       .  A
O95        Co110   1.839       .  S
C96        C2096   1.467       .  S
C97        C1916   1.531       .  S
C98        C2026   1.461       .  S
C99        C1949   1.499       .  S
O100        C113   1.235       .  A
O100       Co108   1.925       .  S
O101        C114   1.292       .  A
O101       Co109   2.041       .  S
O102        C115   1.245       .  A
O102       Co110   1.938       .  S
O103        C116   1.307       .  A
O103       Co111   2.163       .  S
O104        C116   1.258       .  A
O104       Co109   1.895       .  S
O105        C115   1.243       .  A
O105       Co108   1.934       .  S
O106        C113   1.275       .  A
O106       Co111   2.083       .  S
O107        C114   1.269       .  A
O107       Co110   1.970       .  S
Co108       O112   1.984       .  S
Co109       O112   1.896       .  S
Co110       O112   1.873       .  S
Co111       O112   2.113       .  S
C113       C1936   1.510       .  S
C114       C1956   1.449       .  S
C115       C2179   1.410       .  S
C116       C1926   1.499       .  S
O117        C125   1.290       .  A
O117       Co137   2.022       .  S
O118        C126   1.251       .  A
O118       Co138   1.913       .  S
O119        C127   1.275       .  A
O119       Co139   1.995       .  S
O120        C128   1.290       .  A
O120       Co140   2.118       .  S
O121        C127   1.293       .  A
O121       Co138   2.031       .  S
O122        C128   1.254       .  A
O122       Co137   1.905       .  S
O123        C126   1.300       .  A
O123       Co140   2.169       .  S
O124        C125   1.279       .  A
O124       Co139   2.026       .  S
C125       C2169   1.450       .  S
C126       C1876   1.512       .  S
C127       C1959   1.452       .  S
C128       C1896   1.477       .  S
O129        C142   1.269       .  A
O129       Co137   1.890       .  S
O130        C143   1.238       .  A
O130       Co138   1.961       .  S
O131        C144   1.236       .  A
O131       Co139   1.945       .  S
O132        C145   1.312       .  A
O132       Co140   2.164       .  S
O133        C145   1.272       .  A
O133       Co138   1.908       .  S
O134        C144   1.242       .  A
O134       Co137   1.998       .  S
O135        C142   1.319       .  A
O135       Co140   2.182       .  S
O136        C143   1.241       .  A
O136       Co139   1.963       .  S
Co137       O141   1.898       .  S
Co138       O141   1.882       .  S
Co139       O141   2.010       .  S
Co140       O141   2.144       .  S
C142       C1886   1.527       .  S
C143       C2019   1.446       .  S
C144       C1906   1.450       .  S
C145       C1869   1.529       .  S
O146        C154   1.251       .  A
O146       Co166   1.937       .  S
O147        C155   1.307       .  A
O147       Co167   2.147       .  S
O148        C156   1.264       .  A
O148       Co168   1.942       .  S
O149        C157   1.285       .  A
O149       Co169   2.007       .  S
O150        C156   1.282       .  A
O150       Co167   2.091       .  S
O151        C157   1.274       .  A
O151       Co166   1.989       .  S
O152        C155   1.261       .  A
O152       Co169   1.893       .  S
O153        C154   1.284       .  A
O153       Co168   2.036       .  S
C154       C2156   1.438       .  S
C155       C1836   1.496       .  S
C156       C1856   1.488       .  S
C157       C2079   1.427       .  S
O158        C171   1.255       .  A
O158       Co166   1.981       .  S
O159        C172   1.319       .  A
O159       Co167   2.184       .  S
O160        C173   1.288       .  A
O160       Co168   2.048       .  S
O161        C174   1.262       .  A
O161       Co169   1.883       .  S
O162        C174   1.309       .  A
O162       Co167   2.163       .  S
O163        C173   1.272       .  A
O163       Co166   1.874       .  S
O164        C171   1.252       .  A
O164       Co169   1.985       .  S
O165        C172   1.254       .  A
O165       Co168   1.855       .  S
Co166       O170   1.901       .  S
Co167       O170   2.096       .  S
Co168       O170   1.886       .  S
Co169       O170   1.882       .  S
C171       C2009   1.476       .  S
C172       C1829   1.496       .  S
C173       C1909   1.461       .  S
C174       C1849   1.502       .  S
O175        C183   1.265       .  A
O175       Co195   1.851       .  S
O176        C184   1.318       .  A
O176       Co196   2.181   1_554  S
O177        C185   1.267       .  A
O177       Co197   1.810       .  S
O178        C186   1.243       .  A
O178       Co198   2.009       .  S
O179        C185   1.329       .  A
O179       Co196   2.190       .  S
O180        C186   1.237       .  A
O180       Co195   2.010       .  S
O181        C184   1.259       .  A
O181       Co198   1.856       .  S
O182        C183   1.302       .  A
O182       Co197   2.083   1_554  S
C183       C1819   1.447       .  S
C184       C1766   1.507       .  S
C185       C1759   1.491       .  S
C186       C1796   1.454       .  S
O187        C200   1.262       .  A
O187       Co195   1.974       .  S
O188        C201   1.271       .  A
O188       Co196   2.058       .  S
O189        C202   1.253       .  A
O189       Co197   1.977       .  S
O190        C203   1.255       .  A
O190       Co198   1.883       .  S
O191        C203   1.296       .  A
O191       Co196   2.145   1_554  S
O192        C202   1.240       .  A
O192       Co195   1.929   1_556  S
O193        C200   1.276       .  A
O193       Co198   2.012       .  S
O194        C201   1.235       .  A
O194       Co197   1.912       .  S
Co195       O199   1.823   1_554  S
Co196       O199   2.106       .  S
Co197       O199   2.004       .  S
Co198       O199   1.905   1_554  S
C200       C1809   1.430       .  S
C201       C1779   1.490       .  S
C202       C1786   1.446       .  S
C203       C1746   1.490       .  S
O204        C212   1.240       .  A
O204       Co224   1.955   1_655  S
O205        C213   1.265       .  A
O205       Co225   1.806       .  S
O206        C214   1.280       .  A
O206       Co226   1.992       .  S
O207        C215   1.269       .  A
O207       Co227   2.018   1_655  S
O208        C214   1.260       .  A
O208       Co225   1.951       .  S
O209        C215   1.266       .  A
O209       Co224   2.042   1_655  S
O210        C213   1.345       .  A
O210       Co227   2.249       .  S
O211        C212   1.238       .  A
O211       Co226   1.947   1_655  S
C212       C1789   1.426       .  S
C213       C1696   1.514       .  S
C214       C1736   1.426       .  S
C215       C1709   1.517       .  S
O216        C229   1.257       .  A
O216       Co224   1.783       .  S
O217        C230   1.255       .  A
O217       Co225   1.989       .  S
O218        C231   1.283       .  A
O218       Co226   1.867       .  S
O219        C232   1.261       .  A
O219       Co227   2.067       .  S
O220        C232   1.224       .  A
O220       Co225   1.919       .  S
O221        C231   1.309       .  A
O221       Co224   2.078       .  S
O222        C229   1.333       .  A
O222       Co227   2.216       .  S
O223        C230   1.251       .  A
O223       Co226   1.970       .  S
Co224       O228   1.965       .  S
Co225       O228   1.953       .  S
Co226       O228   1.825       .  S
Co227       O228   2.056       .  S
C229       C1689   1.477       .  S
C230       C1716   1.448       .  S
C231       C1729   1.478       .  S
C232       C1676   1.504       .  S
O233        C241   1.300       .  A
O233       Co253   2.061       .  S
O234        C242   1.266       .  A
O234       Co254   1.906       .  S
O235        C243   1.244       .  A
O235       Co255   1.999       .  S
O236        C244   1.326       .  A
O236       Co256   2.185       .  S
O237        C243   1.240   1_554  A
O237       Co254   1.968       .  S
O238        C244   1.264       .  A
O238       Co253   1.843       .  S
O239        C242   1.317   1_556  A
O239       Co256   2.186       .  S
O240        C241   1.284       .  A
O240       Co255   1.874       .  S
C241       C1719   1.444       .  S
C242       C1626   1.534       .  S
C243       C1666   1.440       .  S
C244       C1606   1.496       .  S
O245        C258   1.234       .  A
O245       Co253   1.919       .  S
O246        C259   1.286       .  A
O246       Co254   2.005       .  S
O247        C260   1.249   1_554  A
O247       Co255   1.967   1_554  S
O248        C261   1.305       .  A
O248       Co256   2.160   1_554  S
O249        C261   1.255       .  A
O249       Co254   1.885       .  S
O250        C260   1.248       .  A
O250       Co253   1.962       .  S
O251        C258   1.273       .  A
O251       Co256   2.067       .  S
O252        C259   1.280       .  A
O252       Co255   1.998   1_554  S
Co253       O257   1.941   1_556  S
Co254       O257   1.892       .  S
Co255       O257   1.874   1_556  S
Co256       O257   2.134   1_556  S
C258       C1636   1.485       .  S
C259       C1646   1.428       .  S
C260       C1659   1.465       .  S
C261       C1616   1.491       .  S
O262        C270   1.279       .  A
O262       Co282   2.010       .  S
O263        C271   1.255       .  A
O263       Co283   1.898       .  S
O264        C272   1.264       .  A
O264       Co284   1.912   1_655  S
O265        C273   1.281       .  A
O265       Co285   2.062   1_655  S
O266        C272   1.305   1_455  A
O266       Co283   2.098       .  S
O267        C273   1.247       .  A
O267       Co282   1.925       .  S
O268        C271   1.291       .  A
O268       Co285   2.132       .  S
O269        C270   1.285       .  A
O269       Co284   1.982   1_655  S
C270       C1799   1.461       .  S
C271       C1576   1.490       .  S
C272       C1586   1.447       .  S
C273       C1549   1.486       .  S
O274        C287   1.274       .  A
O274       Co282   1.813       .  S
O275        C288   1.274       .  A
O275       Co283   2.040       .  S
O276        C289   1.249       .  A
O276       Co284   1.963       .  S
O277        C290   1.320       .  A
O277       Co285   2.192       .  S
O278        C290   1.257       .  A
O278       Co283   1.877       .  S
O279        C289   1.259       .  A
O279       Co282   2.011   1_455  S
O280        C287   1.326   1_455  A
O280       Co285   2.173       .  S
O281        C288   1.262       .  A
O281       Co284   1.890       .  S
Co282       O286   1.856       .  S
Co283       O286   1.882   1_455  S
Co284       O286   1.877   1_455  S
Co285       O286   2.092   1_455  S
C287       C1566   1.469   1_655  S
C288       C1649   1.432       .  S
C289       C1596   1.472       .  S
C290       C1556   1.512       .  S
O291        C299   1.299       .  A
O291       Co311   2.061   1_455  S
O292        C300   1.247       .  A
O292       Co312   1.971   1_556  S
O293        C301   1.283       .  A
O293       Co313   2.064       .  S
O294        C302   1.346       .  A
O294       Co314   2.251   1_556  S
O295        C301   1.267       .  A
O295       Co312   1.903       .  S
O296        C302   1.266   1_655  A
O296       Co311   1.792       .  S
O297        C300   1.264   1_554  A
O297       Co314   2.023       .  S
O298        C299   1.279       .  A
O298       Co313   1.898   1_556  S
C299       C1726   1.471       .  S
C300       C1529   1.458       .  S
C301       C1656   1.440       .  S
C302       C1519   1.490       .  S
O303        C316   1.242       .  A
O303       Co311   1.982       .  S
O304        C317   1.248   1_455  A
O304       Co312   1.942       .  S
O305        C318   1.230   1_554  A
O305       Co313   1.901   1_655  S
O306        C319   1.285       .  A
O306       Co314   2.085       .  S
O307        C319   1.263       .  A
O307       Co312   1.984       .  S
O308        C318   1.251       .  A
O308       Co311   2.007       .  S
O309        C316   1.247   1_554  A
O309       Co314   1.990   1_655  S
O310        C317   1.254       .  A
O310       Co313   1.949   1_655  S
Co311       O315   2.035   1_556  S
Co312       O315   1.878   1_455  S
Co313       O315   1.945   1_455  S
Co314       O315   2.056   1_455  S
C316       C1506   1.485       .  S
C317       C1589   1.436       .  S
C318       C1806   1.446       .  S
C319       C1539   1.541       .  S
O320        C328   1.261       .  A
O320       Co340   2.018   1_455  S
O321        C329   1.262       .  A
O321       Co341   1.895       .  S
O322        C330   1.261       .  A
O322       Co342   1.881       .  S
O323        C331   1.331       .  A
O323       Co343   2.202   1_554  S
O324        C330   1.266       .  A
O324       Co341   2.024       .  S
O325        C331   1.266   1_655  A
O325       Co340   1.795       .  S
O326        C329   1.319   1_554  A
O326       Co343   2.190   1_554  S
O327        C328   1.247       .  A
O327       Co342   1.944   1_554  S
C328       C1599   1.474       .  S
C329       C1476   1.524       .  S
C330       C1669   1.417       .  S
C331       C1499   1.487       .  S
O332        C345   1.247       .  A
O332       Co340   1.914       .  S
O333        C346   1.306       .  A
O333       Co341   2.103       .  S
O334        C347   1.288   1_456  A
O334       Co342   2.005       .  S
O335        C348   1.301       .  A
O335       Co343   2.167       .  S
O336        C348   1.255       .  A
O336       Co341   1.885       .  S
O337        C347   1.273       .  A
O337       Co340   1.983       .  S
O338        C345   1.280   1_556  A
O338       Co343   2.068   1_655  S
O339        C346   1.265       .  A
O339       Co342   1.905       .  S
Co340       O344   1.836   1_654  S
Co341       O344   1.882       .  S
Co342       O344   1.879       .  S
Co343       O344   2.097       .  S
C345       C1466   1.496       .  S
C346       C1739   1.443       .  S
C347       C1816   1.458       .  S
C348       C1486   1.509       .  S
O349        C357   1.251       .  A
O349       Co369   1.972       .  S
O350        C358   1.257       .  A
O350       Co370   1.882       .  S
O351        C359   1.275       .  A
O351       Co371   1.985   1_554  S
O352        C360   1.269   1_554  A
O352       Co372   2.045       .  S
O353        C359   1.293       .  A
O353       Co370   2.049       .  S
O354        C360   1.245       .  A
O354       Co369   1.945       .  S
O355        C358   1.301       .  A
O355       Co372   2.141       .  S
O356        C357   1.251   1_554  A
O356       Co371   1.963   1_554  S
C357       C1459   1.466       .  S
C358       C1409   1.479       .  S
C359       C1439   1.453       .  S
C360       C1399   1.489   1_556  S
O361        C374   1.265       .  A
O361       Co369   1.840       .  S
O362        C375   1.238       .  A
O362       Co370   1.969       .  S
O363        C376   1.277       .  A
O363       Co371   1.834       .  S
O364        C377   1.308       .  A
O364       Co372   2.145       .  S
O365        C377   1.268       .  A
O365       Co370   1.907       .  S
O366        C376   1.306       .  A
O366       Co369   2.095       .  S
O367        C374   1.323       .  A
O367       Co372   2.178   1_556  S
O368        C375   1.247   1_556  A
O368       Co371   2.015       .  S
Co369       O373   1.971   1_556  S
Co370       O373   1.893       .  S
Co371       O373   1.863   1_556  S
Co372       O373   2.136       .  S
C374       C1419   1.492       .  S
C375       C1449   1.455       .  S
C376       C1426   1.452       .  S
C377       C1389   1.516       .  S
O378        C386   1.239   1_545  A
O378       Co398   1.929       .  S
O379        C387   1.297       .  A
O379       Co399   2.121       .  S
O380        C388   1.231   1_565  A
O380       Co400   1.903       .  S
O381        C389   1.297       .  A
O381       Co401   2.062       .  S
O382        C388   1.275       .  A
O382       Co399   2.073       .  S
O383        C389   1.279       .  A
O383       Co398   2.013       .  S
O384        C387   1.257       .  A
O384       Co401   1.875       .  S
O385        C386   1.248       .  A
O385       Co400   1.973       .  S
C386       C1379   1.441   1_565  S
C387       C1339   1.470       .  S
C388       C1319   1.484       .  S
C389       C1359   1.473       .  S
O390        C403   1.242       .  A
O390       Co398   1.981       .  S
O391        C404   1.325       .  A
O391       Co399   2.195   1_565  S
O392        C405   1.293       .  A
O392       Co400   2.041       .  S
O393        C406   1.272       .  A
O393       Co401   1.895       .  S
O394        C406   1.315       .  A
O394       Co399   2.162       .  S
O395        C405   1.286       .  A
O395       Co398   1.885   1_565  S
O396        C403   1.233       .  A
O396       Co401   1.971       .  S
O397        C404   1.261       .  A
O397       Co400   1.835       .  S
Co398       O402   1.857       .  S
Co399       O402   2.130       .  S
Co400       O402   1.971   1_565  S
Co401       O402   1.894       .  S
C403       C1366   1.429       .  S
C404       C1346   1.507       .  S
C405       C1429   1.445       .  S
C406       C1326   1.520       .  S
O407        C415   1.296       .  A
O407       Co427   2.068       .  S
O408        C416   1.266       .  A
O408       Co428   1.946       .  S
O409        C417   1.301       .  A
O409       Co429   2.038       .  S
O410        C418   1.271       .  A
O410       Co430   2.021       .  S
O411        C417   1.275   1_554  A
O411       Co428   1.955       .  S
O412        C418   1.272   1_556  A
O412       Co427   2.026       .  S
O413        C416   1.298       .  A
O413       Co430   2.049       .  S
O414        C415   1.281       .  A
O414       Co429   2.018       .  S
C415       C1356   1.497       .  S
C416       C1286   1.450       .  S
C417       C1306   1.459       .  S
C418       C1296   1.469       .  S
O419        C432   1.285       .  A
O419       Co427   1.965       .  S
O420        C433   1.264   1_554  A
O420       Co428   1.986       .  S
O421        C434   1.261       .  A
O421       Co429   1.864       .  S
O422        C435   1.258       .  A
O422       Co430   1.979       .  S
O423        C435   1.265       .  A
O423       Co428   1.978       .  S
O424        C434   1.300       .  A
O424       Co427   2.103       .  S
O425        C432   1.283   1_554  A
O425       Co430   1.946       .  S
O426        C433   1.249       .  A
O426       Co429   1.938       .  S
Co427       O431   2.036   1_556  S
Co428       O431   2.012       .  S
Co429       O431   1.866   1_556  S
Co430       O431   1.985       .  S
C432       C1259   1.458       .  S
C433       C1246   1.482   1_556  S
C434       C1266   1.477       .  S
C435       C1279   1.492       .  S
O436        C444   1.268       .  A
O436       Co456   1.989   1_565  S
O437        C445   1.286       .  A
O437       Co457   2.128   1_565  S
O438        C446   1.274       .  A
O438       Co458   1.810       .  S
O439        C447   1.251       .  A
O439       Co459   1.918       .  S
O440        C446   1.345       .  A
O440       Co457   2.231   1_565  S
O441        C447   1.277       .  A
O441       Co456   2.056       .  S
O442        C445   1.233       .  A
O442       Co459   1.966   1_565  S
O443        C444   1.260       .  A
O443       Co458   1.967       .  S
C444       C1436   1.462       .  S
C445       C1209   1.519       .  S
C446       C1199   1.496       .  S
C447       C1226   1.426       .  S
O448        C461   1.276       .  A
O448       Co456   1.859       .  S
O449        C462   1.267   1_545  A
O449       Co457   2.056       .  S
O450        C463   1.277   1_565  A
O450       Co458   2.004       .  S
O451        C464   1.250       .  A
O451       Co459   1.954       .  S
O452        C464   1.274       .  A
O452       Co457   2.065       .  S
O453        C463   1.264       .  A
O453       Co456   1.938       .  S
O454        C461   1.298       .  A
O454       Co459   2.064       .  S
O455        C462   1.244       .  A
O455       Co458   1.960       .  S
Co456       O460   1.980       .  S
Co457       O460   2.069       .  S
Co458       O460   1.875   1_565  S
Co459       O460   1.957       .  S
C461       C1289   1.439       .  S
C462       C1216   1.516       .  S
C463       C1239   1.435       .  S
C464       C1186   1.522       .  S
O465        C473   1.250       .  A
O465       Co485   1.952       .  S
O466        C474   1.263       .  A
O466       Co486   1.898       .  S
O467        C475   1.281       .  A
O467       Co487   2.008   1_545  S
O468        C476   1.283       .  A
O468       Co488   2.112       .  S
O469        C475   1.298       .  A
O469       Co486   2.048       .  S
O470        C476   1.226   1_565  A
O470       Co485   1.910       .  S
O471        C474   1.294   1_554  A
O471       Co488   2.107       .  S
O472        C473   1.238   1_545  A
O472       Co487   1.922   1_544  S
C473       C1229   1.443   1_565  S
C474       C1156   1.473   1_556  S
C475       C1299   1.483       .  S
C476       C1179   1.514       .  S
O477        C490   1.267       .  A
O477       Co485   1.842       .  S
O478        C491   1.242       .  A
O478       Co486   1.967       .  S
O479        C492   1.284       .  A
O479       Co487   1.893       .  S
O480        C493   1.324       .  A
O480       Co488   2.199   1_556  S
O481        C493   1.266       .  A
O481       Co486   1.887       .  S
O482        C492   1.291       .  A
O482       Co485   2.044   1_556  S
O483        C490   1.326       .  A
O483       Co488   2.187   1_565  S
O484        C491   1.237   1_565  A
O484       Co487   1.987       .  S
Co485       O489   1.967   1_565  S
Co486       O489   1.871   1_556  S
Co487       O489   1.887   1_566  S
Co488       O489   2.125       .  S
C490       C1146   1.494       .  S
C491       C1369   1.429       .  S
C492       C1446   1.441       .  S
C493       C1166   1.538       .  S
O494        C502   1.292   1_554  A
O494       Co514   2.041       .  S
O495        C503   1.263       .  A
O495       Co515   1.907       .  S
O496        C504   1.276       .  A
O496       Co516   1.998   1_556  S
O497        C505   1.303   1_556  A
O497       Co517   2.134   1_565  S
O498        C504   1.279       .  A
O498       Co515   2.002       .  S
O499        C505   1.264       .  A
O499       Co514   1.893       .  S
O500        C503   1.302       .  A
O500       Co517   2.132       .  S
O501        C502   1.268       .  A
O501       Co516   1.978   1_566  S
C502       C1456   1.459       .  S
C503       C1126   1.496       .  S
C504       C1376   1.429       .  S
C505       C1119   1.509       .  S
O506        C519   1.260       .  A
O506       Co514   1.861       .  S
O507        C520   1.286       .  A
O507       Co515   2.074       .  S
O508        C521   1.274       .  A
O508       Co516   1.923       .  S
O509        C522   1.323       .  A
O509       Co517   2.196       .  S
O510        C522   1.260       .  A
O510       Co515   1.847       .  S
O511        C521   1.276       .  A
O511       Co514   2.026   1_545  S
O512        C519   1.317   1_545  A
O512       Co517   2.172   1_554  S
O513        C520   1.268   1_554  A
O513       Co516   1.884       .  S
Co514       O518   1.853   1_564  S
Co515       O518   1.883       .  S
Co516       O518   1.764   1_554  S
Co517       O518   2.037       .  S
C519       C1136   1.494   1_565  S
C520       C1309   1.428       .  S
C521       C1236   1.447       .  S
C522       C1106   1.506       .  S
O523        C531   1.245       .  A
O523       Co543   1.962       .  S
O524        C532   1.259       .  A
O524       Co544   1.879       .  S
O525        C533   1.277       .  A
O525       Co545   1.979       .  S
O526        C534   1.272       .  A
O526       Co546   2.076   1_655  S
O527        C533   1.294       .  A
O527       Co544   2.033       .  S
O528        C534   1.231       .  A
O528       Co543   1.914       .  S
O529        C532   1.304       .  A
O529       Co546   2.141       .  S
O530        C531   1.243       .  A
O530       Co545   1.936   1_655  S
C531       C1066   1.439       .  S
C532       C1039   1.477       .  S
C533       C1089   1.444       .  S
C534       C1056   1.484       .  S
O535        C548   1.265       .  A
O535       Co543   1.863       .  S
O536        C549   1.246       .  A
O536       Co544   1.984       .  S
O537        C550   1.282       .  A
O537       Co545   1.851       .  S
O538        C551   1.314       .  A
O538       Co546   2.164       .  S
O539        C551   1.268       .  A
O539       Co544   1.899       .  S
O540        C550   1.296       .  A
O540       Co543   2.072   1_455  S
O541        C548   1.326   1_455  A
O541       Co546   2.180       .  S
O542        C549   1.249       .  A
O542       Co545   2.000       .  S
Co543       O547   1.914   1_655  S
Co544       O547   1.869       .  S
Co545       O547   1.871       .  S
Co546       O547   2.135       .  S
C548       C1049   1.504       .  S
C549       C1076   1.457       .  S
C550       C1096   1.427       .  S
C551       C1029   1.519       .  S
O552        C560   1.246       .  A
O552       Co572   1.959       .  S
O553        C561   1.255       .  A
O553       Co573   1.890       .  S
O554        C562   1.283       .  A
O554       Co574   1.999       .  S
O555        C563   1.275       .  A
O555       Co575   2.091   1_565  S
O556        C562   1.293       .  A
O556       Co573   2.011       .  S
O557        C563   1.230       .  A
O557       Co572   1.917       .  S
O558        C561   1.304       .  A
O558       Co575   2.152       .  S
O559        C560   1.242       .  A
O559       Co574   1.937   1_565  S
C560       C1069   1.444       .  S
C561        C979   1.489       .  S
C562       C1019   1.434       .  S
C563        C986   1.500       .  S
O564        C577   1.268       .  A
O564       Co572   1.857       .  S
O565        C578   1.238       .  A
O565       Co573   1.947       .  S
O566        C579   1.288       .  A
O566       Co574   1.904       .  S
O567        C580   1.315       .  A
O567       Co575   2.179       .  S
O568        C580   1.267       .  A
O568       Co573   1.908       .  S
O569        C579   1.291       .  A
O569       Co572   2.058   1_545  S
O570        C577   1.324   1_545  A
O570       Co575   2.175       .  S
O571        C578   1.257       .  A
O571       Co574   2.008       .  S
Co572       O576   1.925   1_565  S
Co573       O576   1.859       .  S
Co574       O576   1.922       .  S
Co575       O576   2.142       .  S
C577        C966   1.499       .  S
C578        C996   1.462       .  S
C579       C1009   1.462       .  S
C580        C956   1.529       .  S
O581        C589   1.246       .  A
O581       Co601   1.984       .  S
O582        C590   1.277       .  A
O582       Co602   1.771       .  S
O583        C591   1.279       .  A
O583       Co603   2.008       .  S
O584        C592   1.274       .  A
O584       Co604   2.059       .  S
O585        C591   1.262       .  A
O585       Co602   1.932       .  S
O586        C592   1.245   1_565  A
O586       Co601   1.954       .  S
O587        C590   1.347       .  A
O587       Co604   2.249       .  S
O588        C589   1.235   1_545  A
O588       Co603   1.937       .  S
C589        C936   1.459       .  S
C590        C896   1.472       .  S
C591        C926   1.458       .  S
C592        C919   1.507       .  S
O593        C606   1.264       .  A
O593       Co601   1.818       .  S
O594        C607   1.265       .  A
O594       Co602   2.011       .  S
O595        C608   1.281       .  A
O595       Co603   1.877   1_565  S
O596        C609   1.252   1_565  A
O596       Co604   2.071   1_565  S
O597        C609   1.227       .  A
O597       Co602   1.992       .  S
O598        C608   1.298       .  A
O598       Co601   2.081       .  S
O599        C606   1.324       .  A
O599       Co604   2.182   1_565  S
O600        C607   1.252       .  A
O600       Co603   1.940       .  S
Co601       O605   1.971   1_565  S
Co602       O605   1.962       .  S
Co603       O605   1.878       .  S
Co604       O605   2.049       .  S
C606        C906   1.478       .  S
C607        C946   1.454       .  S
C608       C1079   1.446       .  S
C609        C889   1.522       .  S
O610        C618   1.263   1_455  A
O610       Co630   1.958   1_455  S
O611        C619   1.258       .  A
O611       Co631   1.961       .  S
O612        C620   1.282       .  A
O612       Co632   2.074   1_455  S
O613        C621   1.346   1_455  A
O613       Co633   2.235       .  S
O614        C620   1.260       .  A
O614       Co631   1.886       .  S
O615        C621   1.283       .  A
O615       Co630   1.789       .  S
O616        C619   1.294       .  A
O616       Co633   2.101       .  S
O617        C618   1.279       .  A
O617       Co632   2.025       .  S
C618        C876   1.484   1_655  S
C619        C846   1.507       .  S
C620        C929   1.457       .  S
C621        C826   1.479   1_655  S
O622        C635   1.244       .  A
O622       Co630   2.002       .  S
O623        C636   1.291   1_455  A
O623       Co631   2.068       .  S
O624        C637   1.262       .  A
O624       Co632   1.934       .  S
O625        C638   1.277       .  A
O625       Co633   2.080       .  S
O626        C638   1.252       .  A
O626       Co631   1.965       .  S
O627        C637   1.283       .  A
O627       Co630   2.024       .  S
O628        C635   1.261       .  A
O628       Co633   2.050   1_655  S
O629        C636   1.284       .  A
O629       Co632   1.851       .  S
Co630       O634   1.871       .  S
Co631       O634   1.917   1_455  S
Co632       O634   1.926       .  S
Co633       O634   1.981   1_455  S
C635        C839   1.521       .  S
C636        C869   1.433       .  S
C637        C999   1.464       .  S
C638        C856   1.531       .  S
O639        C647   1.284       .  A
O639       Co659   2.021   1_565  S
O640        C648   1.280       .  A
O640       Co660   2.089       .  S
O641        C649   1.286       .  A
O641       Co661   1.770       .  S
O642        C650   1.241       .  A
O642       Co662   1.964       .  S
O643        C649   1.348   1_455  A
O643       Co660   2.244   1_565  S
O644        C650   1.242       .  A
O644       Co659   1.964   1_455  S
O645        C648   1.237       .  A
O645       Co662   1.925       .  S
O646        C647   1.265   1_455  A
O646       Co661   1.928   1_455  S
C647       C1086   1.446   1_655  S
C648        C789   1.501   1_545  S
C649        C796   1.473   1_655  S
C650        C939   1.456       .  S
O651        C664   1.288       .  A
O651       Co659   1.854       .  S
O652        C665   1.254       .  A
O652       Co660   2.085   1_655  S
O653        C666   1.273   1_565  A
O653       Co661   2.018       .  S
O654        C667   1.262       .  A
O654       Co662   1.871       .  S
O655        C667   1.315       .  A
O655       Co660   2.153       .  S
O656        C666   1.258       .  A
O656       Co659   1.939       .  S
O657        C664   1.296       .  A
O657       Co662   2.066   1_655  S
O658        C665   1.227   1_565  A
O658       Co661   2.008       .  S
Co659       O663   1.858   1_655  S
Co660       O663   2.051       .  S
Co661       O663   1.927   1_665  S
Co662       O663   1.923       .  S
C664        C866   1.433       .  S
C665        C809   1.532       .  S
C666       C1006   1.467       .  S
C667        C816   1.498       .  S
O668        C676   1.290       .  A
O668       Co688   2.017       .  S
O669        C677   1.257       .  A
O669       Co689   1.900   1_455  S
O670        C678   1.273       .  A
O670       Co690   1.994   1_545  S
O671        C679   1.286       .  A
O671       Co691   2.132       .  S
O672        C678   1.299       .  A
O672       Co689   2.065       .  S
O673        C679   1.248   1_565  A
O673       Co688   1.908       .  S
O674        C677   1.292       .  A
O674       Co691   2.123       .  S
O675        C676   1.275       .  A
O675       Co690   2.005   1_455  S
C676        C949   1.443   1_565  S
C677        C759   1.483       .  S
C678        C879   1.473       .  S
C679        C766   1.485       .  S
O680        C693   1.271       .  A
O680       Co688   1.905       .  S
O681        C694   1.242       .  A
O681       Co689   1.948       .  S
O682        C695   1.248   1_655  A
O682       Co690   1.975       .  S
O683        C696   1.305       .  A
O683       Co691   2.129   1_655  S
O684        C696   1.270       .  A
O684       Co689   1.902       .  S
O685        C695   1.235       .  A
O685       Co688   1.945       .  S
O686        C693   1.308       .  A
O686       Co691   2.143   1_565  S
O687        C694   1.250   1_565  A
O687       Co690   1.974       .  S
Co688       O692   1.858   1_565  S
Co689       O692   1.851   1_655  S
Co690       O692   2.037   1_665  S
Co691       O692   2.169       .  S
C693        C776   1.517       .  S
C694       C1016   1.452       .  S
C695       C1099   1.444       .  S
C696        C746   1.506       .  S
C697        C698   1.382       .  D
C697        C819   1.512       .  S
C697        C859   1.544       .  S
C698       C1536   1.545       .  S
C698       C1579   1.519       .  S
C699        C700   1.380       .  D
C699       C1139   1.514       .  S
C699       C1219   1.530       .  S
C700        C806   1.530       .  S
C700        C969   1.515       .  S
C701        C702   1.369       .  D
C701       C1496   1.504       .  S
C701       C1569   1.497       .  S
C702        C799   1.501       .  S
C702       C1036   1.512       .  S
C703        C704   1.388       .  D
C703       C1176   1.542       .  S
C703       C1206   1.539   1_545  S
C704        C786   1.527       .  S
C704        C916   1.527       .  S
C705        C706   1.377       .  D
C705       C1859   1.505       .  S
C705       C2129   1.526       .  S
C706        C849   1.525       .  S
C706        C899   1.508       .  S
C707        C708   1.378       .  D
C707       C1939   1.530       .  S
C707       C2139   1.527       .  S
C708        C836   1.527       .  S
C708        C959   1.530       .  S
C709        C710   1.375       .  D
C709       C1846   1.512       .  S
C709       C1989   1.515       .  S
C710        C909   1.510       .  S
C710       C1026   1.519       .  S
C711        C712   1.371       .  D
C711       C1169   1.538       .  S
C711       C1329   1.525       .  S
C712        C769   1.506       .  S
C712        C886   1.521       .  S
C713        C714   1.362       .  D
C713       C1526   1.473       .  S
C713       C1639   1.511       .  S
C714       C1159   1.501   1_556  S
C714       C1256   1.472       .  S
C715        C716   1.378       .  D
C715       C1479   1.534       .  S
C715       C1629   1.530   1_556  S
C716       C1149   1.514   1_556  S
C716       C1386   1.513   1_556  S
C717        C718   1.375       .  D
C717       C1999   1.516       .  S
C717       C2069   1.539       .  S
C718       C1196   1.523       .  S
C718       C1406   1.503       .  S
C719        C720   1.372       .  D
C719       C2059   1.523       .  S
C719       C2119   1.492       .  S
C720       C1189   1.524       .  S
C720       C1276   1.495       .  S
C721        C722   1.368       .  D
C721       C1899   1.509       .  S
C721       C2109   1.485       .  S
C722       C1269   1.480       .  S
C722       C1336   1.504       .  S
C723        C724   1.368       .  D
C723       C1516   1.519       .  S
C723       C1686   1.506       .  S
C724        C756   1.496       .  S
C724        C829   1.512       .  S
C725        C726   1.374       .  D
C725       C1509   1.488       .  S
C725       C1749   1.532       .  S
C726       C1109   1.524       .  S
C726       C1249   1.477       .  S
C727        C728   1.382       .  D
C727       C1839   1.522       .  S
C727       C2049   1.528       .  S
C728       C1559   1.527       .  S
C728       C1619   1.519       .  S
C729        C730   1.378       .  D
C729       C1946   1.523       .  S
C729       C2039   1.520       .  S
C730       C1546   1.515       .  S
C730       C1769   1.514       .  S
C731        C732   1.380       .  D
C731       C1826   1.520       .  S
C731       C1889   1.524       .  S
C732       C1609   1.512       .  S
C732       C1679   1.526       .  S
C733        C734   1.381       .  D
C733       C1489   1.528       .  S
C733       C1699   1.536       .  S
C734        C779   1.519       .  S
C734       C1046   1.522       .  S
C735        C736   1.378       .  D
C735       C1129   1.524       .  S
C735       C1316   1.514       .  S
C736        C749   1.505       .  S
C736        C976   1.519       .  S
C737        C738   1.376   1_556  D
C737       C1469   1.498       .  S
C737       C1756   1.504       .  S
C738       C1116   1.540       .  S
C738       C1396   1.522       .  S
C739        C740   1.382       .  D
C739       C1706   1.528       .  S
C739       C1776   1.516       .  S
C740       C1879   1.530       .  S
C740       C1929   1.524       .  S
C741        C742   1.380       .  D
C741       C1919   1.530       .  S
C741       C1966   1.520       .  S
C742        C989   1.529       .  S
C742       C1059   1.513       .  S
C743        C744   1.380       .  D
C743       C1866   1.526       .  S
C743       C1979   1.521       .  S
C744       C1349   1.521       .  S
C744       C1416   1.514       .  S
C745        C746   1.415       .  A
C745        C750   1.401       .  A
C745        F752   1.358       .  S
C746        C747   1.414   1_545  A
C747        C748   1.413       .  A
C747        F754   1.357       .  S
C748        C749   1.409   1_565  A
C748        F753   1.357       .  S
C749        C750   1.402       .  A
C750        F751   1.358       .  S
C755        C756   1.414       .  A
C755        C760   1.414       .  A
C755        F762   1.357       .  S
C756        C757   1.398   1_455  A
C757        C758   1.389       .  A
C757        F764   1.356       .  S
C758        C759   1.412   1_655  A
C758        F763   1.357       .  S
C759        C760   1.406       .  A
C760        F761   1.356       .  S
C765        C766   1.406       .  A
C765        C770   1.413       .  A
C765        F772   1.357       .  S
C766        C767   1.415   1_545  A
C767        C768   1.400       .  A
C767        F774   1.356       .  S
C768        C769   1.399   1_565  A
C768        F773   1.358       .  S
C769        C770   1.416       .  A
C770        F771   1.355       .  S
C775        C776   1.416   1_655  A
C775        C780   1.418       .  A
C775        F782   1.357       .  S
C776        C777   1.418       .  A
C777        C778   1.405       .  A
C777        F784   1.358       .  S
C778        C779   1.406       .  A
C778        F783   1.356       .  S
C779        C780   1.411   1_455  A
C780        F781   1.357       .  S
C785        C786   1.411   1_565  A
C785        C790   1.414       .  A
C785        F792   1.357       .  S
C786        C787   1.413       .  A
C787        C788   1.416       .  A
C787        F794   1.357       .  S
C788        C789   1.413   1_545  A
C788        F793   1.358       .  S
C789        C790   1.412       .  A
C790        F791   1.357       .  S
C795        C796   1.411       .  A
C795        C800   1.411       .  A
C795        F802   1.357       .  S
C796        C797   1.409   1_455  A
C797        C798   1.396       .  A
C797        F804   1.359       .  S
C798        C799   1.406   1_655  A
C798        F803   1.356       .  S
C799        C800   1.407       .  A
C800        F801   1.357       .  S
C805        C806   1.418       .  A
C805        C810   1.428       .  A
C805        F812   1.356       .  S
C806        C807   1.403   1_545  A
C807        C808   1.404       .  A
C807        F814   1.356       .  S
C808        C809   1.424   1_565  A
C808        F813   1.358       .  S
C809        C810   1.415       .  A
C810        F811   1.356       .  S
C815        C816   1.410       .  A
C815        C820   1.403       .  A
C815        F822   1.358       .  S
C816        C817   1.413   1_455  A
C817        C818   1.414       .  A
C817        F824   1.357       .  S
C818        C819   1.410   1_655  A
C818        F823   1.357       .  S
C819        C820   1.409       .  A
C820        F821   1.354       .  S
C825        C826   1.408   1_655  A
C825        C830   1.401       .  A
C825        F832   1.358       .  S
C826        C827   1.410       .  A
C827        C828   1.411       .  A
C827        F834   1.356       .  S
C828        C829   1.407       .  A
C828        F833   1.357       .  S
C829        C830   1.410   1_455  A
C830        F831   1.356       .  S
C835        C836   1.415       .  A
C835        C840   1.422       .  A
C835        F842   1.356       .  S
C836        C837   1.408       .  A
C837        C838   1.411       .  A
C837        F844   1.356       .  S
C838        C839   1.417       .  A
C838        F843   1.358       .  S
C839        C840   1.414       .  A
C840        F841   1.357       .  S
C845        C846   1.410       .  A
C845        C850   1.413       .  A
C845        F852   1.357       .  S
C846        C847   1.414       .  A
C847        C848   1.417       .  A
C847        F854   1.356       .  S
C848        C849   1.410       .  A
C848        F853   1.357       .  S
C849        C850   1.412       .  A
C850        F851   1.355       .  S
C855        C856   1.416   1_655  A
C855        C860   1.427       .  A
C855        F862   1.357       .  S
C856        C857   1.417       .  A
C857        C858   1.411       .  A
C857        F864   1.358       .  S
C858        C859   1.411       .  A
C858        F863   1.352       .  S
C859        C860   1.420   1_455  A
C860        F861   1.357       .  S
C865        C866   1.395       .  A
C865        C870   1.380       .  A
C865        F872   1.346       .  S
C866        C867   1.399   1_655  A
C867        C868   1.379       .  A
C867        F874   1.359       .  S
C868        C869   1.402   1_455  A
C868        F873   1.358       .  S
C869        C870   1.393       .  A
C870        F871   1.353       .  S
C875        C876   1.406   1_655  A
C875        C880   1.394       .  A
C875        F882   1.358       .  S
C876        C877   1.416       .  A
C877        C878   1.400       .  A
C877        F884   1.358       .  S
C878        C879   1.401   1_455  A
C878        F883   1.358       .  S
C879        C880   1.408       .  A
C880        F881   1.357       .  S
C885        C886   1.400       .  A
C885        C890   1.398       .  A
C885        F892   1.355       .  S
C886        C887   1.418   1_545  A
C887        C888   1.425       .  A
C887        F894   1.356       .  S
C888        C889   1.412   1_565  A
C888        F893   1.357       .  S
C889        C890   1.423       .  A
C890        F891   1.359       .  S
C895        C896   1.411       .  A
C895        C900   1.403       .  A
C895        F902   1.358       .  S
C896        C897   1.411       .  A
C897        C898   1.411       .  A
C897        F904   1.357       .  S
C898        C899   1.407       .  A
C898        F903   1.357       .  S
C899        C900   1.409       .  A
C900        F901   1.357       .  S
C905        C906   1.411       .  A
C905        C910   1.410       .  A
C905        F912   1.358       .  S
C906        C907   1.406       .  A
C907        C908   1.402       .  A
C907        F914   1.358       .  S
C908        C909   1.412       .  A
C908        F913   1.356       .  S
C909        C910   1.406       .  A
C910        F911   1.357       .  S
C915        C916   1.414       .  A
C915        C920   1.420       .  A
C915        F922   1.357       .  S
C916        C917   1.409   1_545  A
C917        C918   1.411       .  A
C917        F924   1.357       .  S
C918        C919   1.414   1_565  A
C918        F923   1.358       .  S
C919        C920   1.411       .  A
C920        F921   1.357       .  S
C925        C926   1.410       .  A
C925        C930   1.384       .  A
C925        F932   1.357       .  S
C926        C927   1.401       .  A
C927        C928   1.384       .  A
C927        F934   1.358       .  S
C928        C929   1.410       .  A
C928        F933   1.358       .  S
C929        C930   1.401       .  A
C930        F931   1.359       .  S
C935        C936   1.403   1_545  A
C935        C940   1.399       .  A
C935        F942   1.358   1_545  S
C936        C937   1.407   1_565  A
C937        C938   1.385       .  A
C937        F944   1.359       .  S
C938        C939   1.399       .  A
C938        F943   1.359       .  S
C939        C940   1.407       .  A
C940        F941   1.357       .  S
C945        C946   1.406   1_565  A
C945        C950   1.384       .  A
C945        F952   1.354       .  S
C946        C947   1.406       .  A
C947        C948   1.391       .  A
C947        F954   1.358       .  S
C948        C949   1.401       .  A
C948        F953   1.357       .  S
C949        C950   1.396   1_545  A
C950        F951   1.358       .  S
C955        C956   1.419       .  A
C955        C960   1.409       .  A
C955        F962   1.358       .  S
C956        C957   1.417       .  A
C957        C958   1.425       .  A
C957        F964   1.357       .  S
C958        C959   1.415       .  A
C958        F963   1.356       .  S
C959        C960   1.407       .  A
C960        F961   1.356       .  S
C965        C966   1.410       .  A
C965        C970   1.402       .  A
C965        F972   1.358       .  S
C966        C967   1.413   1_565  A
C967        C968   1.417       .  A
C967        F974   1.357       .  S
C968        C969   1.410       .  A
C968        F973   1.357       .  S
C969        C970   1.409   1_545  A
C970        F971   1.356       .  S
C975        C976   1.408   1_565  A
C975        C980   1.412       .  A
C975        F982   1.357       .  S
C976        C977   1.412       .  A
C977        C978   1.410       .  A
C977        F984   1.357       .  S
C978        C979   1.410       .  A
C978        F983   1.358       .  S
C979        C980   1.411   1_545  A
C980        F981   1.357       .  S
C985        C986   1.412       .  A
C985        C990   1.412       .  A
C985        F992   1.357       .  S
C986        C987   1.412       .  A
C987        C988   1.416       .  A
C987        F994   1.357       .  S
C988        C989   1.414       .  A
C988        F993   1.357       .  S
C989        C990   1.412       .  A
C990        F991   1.355       .  S
C995        C996   1.396       .  A
C995       C1000   1.388       .  A
C995       F1002   1.358       .  S
C996        C997   1.414       .  A
C997        C998   1.386       .  A
C997       F1004   1.358       .  S
C998        C999   1.397       .  A
C998       F1003   1.358       .  S
C999       C1000   1.412       .  A
C1000      F1001   1.354       .  S
C1005      C1006   1.406       .  A
C1005      C1010   1.396       .  A
C1005      F1012   1.353       .  S
C1006      C1007   1.395   1_545  A
C1007      C1008   1.388       .  A
C1007      F1014   1.358       .  S
C1008      C1009   1.410   1_565  A
C1008      F1013   1.347       .  S
C1009      C1010   1.396       .  A
C1010      F1011   1.357       .  S
C1015      C1016   1.404   1_565  A
C1015      C1020   1.388   1_565  A
C1015      F1022   1.358       .  S
C1016      C1017   1.408       .  A
C1017      C1018   1.381       .  A
C1017      F1024   1.355       .  S
C1018      C1019   1.394       .  A
C1018      F1023   1.359       .  S
C1019      C1020   1.400       .  A
C1020      F1021   1.355   1_545  S
C1025      C1026   1.401       .  A
C1025      C1030   1.397       .  A
C1025      F1032   1.356       .  S
C1026      C1027   1.416       .  A
C1027      C1028   1.420       .  A
C1027      F1034   1.357       .  S
C1028      C1029   1.413       .  A
C1028      F1033   1.357       .  S
C1029      C1030   1.423       .  A
C1030      F1031   1.358       .  S
C1035      C1036   1.409   1_655  A
C1035      C1040   1.408       .  A
C1035      F1042   1.356       .  S
C1036      C1037   1.410       .  A
C1037      C1038   1.405       .  A
C1037      F1044   1.357       .  S
C1038      C1039   1.408       .  A
C1038      F1043   1.358       .  S
C1039      C1040   1.409   1_455  A
C1040      F1041   1.358       .  S
C1045      C1046   1.415       .  A
C1045      C1050   1.415       .  A
C1045      F1052   1.355       .  S
C1046      C1047   1.408   1_455  A
C1047      C1048   1.406       .  A
C1047      F1054   1.358       .  S
C1048      C1049   1.414       .  A
C1048      F1053   1.358       .  S
C1049      C1050   1.411   1_655  A
C1050      F1051   1.357       .  S
C1055      C1056   1.408       .  A
C1055      C1060   1.403       .  A
C1055      F1062   1.358       .  S
C1056      C1057   1.410       .  A
C1057      C1058   1.414       .  A
C1057      F1064   1.357       .  S
C1058      C1059   1.410       .  A
C1058      F1063   1.357       .  S
C1059      C1060   1.408       .  A
C1060      F1061   1.355       .  S
C1065      C1066   1.401       .  A
C1065      C1070   1.389       .  A
C1065      F1072   1.358       .  S
C1066      C1067   1.400       .  A
C1067      C1068   1.381       .  A
C1067      F1074   1.359       .  S
C1068      C1069   1.402       .  A
C1068      F1073   1.359       .  S
C1069      C1070   1.404       .  A
C1070      F1071   1.358       .  S
C1075      C1076   1.407       .  A
C1075      C1080   1.405       .  A
C1075      F1082   1.357       .  S
C1076      C1077   1.397       .  A
C1077      C1078   1.369       .  A
C1077      F1084   1.352       .  S
C1078      C1079   1.390       .  A
C1078      F1083   1.349       .  S
C1079      C1080   1.405       .  A
C1080      F1081   1.357       .  S
C1085      C1086   1.396   1_655  A
C1085      C1090   1.389       .  A
C1085      F1092   1.359       .  S
C1086      C1087   1.409       .  A
C1087      C1088   1.387       .  A
C1087      F1094   1.359       .  S
C1088      C1089   1.394       .  A
C1088      F1093   1.357       .  S
C1089      C1090   1.405   1_455  A
C1090      F1091   1.355       .  S
C1095      C1096   1.391       .  A
C1095      C1100   1.382       .  A
C1095      F1102   1.355       .  S
C1096      C1097   1.400       .  A
C1097      C1098   1.380       .  A
C1097      F1104   1.358   1_455  S
C1098      C1099   1.399       .  A
C1098      F1103   1.358   1_455  S
C1099      C1100   1.409       .  A
C1100      F1101   1.357       .  S
C1105      C1106   1.414       .  A
C1105      C1110   1.401       .  A
C1105      F1112   1.359       .  S
C1106      C1107   1.413   1_556  A
C1107      C1108   1.421       .  A
C1107      F1114   1.357       .  S
C1108      C1109   1.413       .  A
C1108      F1113   1.357       .  S
C1109      C1110   1.407   1_554  A
C1110      F1111   1.355       .  S
C1115      C1116   1.436       .  A
C1115      C1120   1.423       .  A
C1115      F1122   1.349       .  S
C1116      C1117   1.405   1_554  A
C1117      C1118   1.380       .  A
C1117      F1124   1.356       .  S
C1118      C1119   1.409   1_556  A
C1118      F1123   1.339   1_556  S
C1119      C1120   1.403       .  A
C1120      F1121   1.357       .  S
C1125      C1126   1.413       .  A
C1125      C1130   1.406       .  A
C1125      F1132   1.359       .  S
C1126      C1127   1.412   1_545  A
C1127      C1128   1.420       .  A
C1127      F1134   1.357       .  S
C1128      C1129   1.413   1_565  A
C1128      F1133   1.357       .  S
C1129      C1130   1.408       .  A
C1130      F1131   1.355       .  S
C1135      C1136   1.408   1_565  A
C1135      C1140   1.403       .  A
C1135      F1142   1.358       .  S
C1136      C1137   1.412       .  A
C1137      C1138   1.416       .  A
C1137      F1144   1.357       .  S
C1138      C1139   1.410       .  A
C1138      F1143   1.357       .  S
C1139      C1140   1.409   1_545  A
C1140      F1141   1.355       .  S
C1145      C1146   1.411   1_556  A
C1145      C1150   1.415       .  A
C1145      F1152   1.357       .  S
C1146      C1147   1.410       .  A
C1147      C1148   1.404       .  A
C1147      F1154   1.358       .  S
C1148      C1149   1.408       .  A
C1148      F1153   1.357       .  S
C1149      C1150   1.410   1_554  A
C1150      F1151   1.357       .  S
C1155      C1156   1.407   1_556  A
C1155      C1160   1.403       .  A
C1155      F1162   1.358       .  S
C1156      C1157   1.405       .  A
C1157      C1158   1.403       .  A
C1157      F1164   1.358       .  S
C1158      C1159   1.406       .  A
C1158      F1163   1.357       .  S
C1159      C1160   1.408   1_554  A
C1160      F1161   1.357       .  S
C1165      C1166   1.427       .  A
C1165      C1170   1.411       .  A
C1165      F1172   1.358       .  S
C1166      C1167   1.418   1_545  A
C1167      C1168   1.432       .  A
C1167      F1174   1.356       .  S
C1168      C1169   1.424   1_565  A
C1168      F1173   1.356       .  S
C1169      C1170   1.406       .  A
C1170      F1171   1.356       .  S
C1175      C1176   1.416   1_565  A
C1175      C1180   1.421       .  A
C1175      F1182   1.357       .  S
C1176      C1177   1.413       .  A
C1177      C1178   1.422       .  A
C1177      F1184   1.357       .  S
C1178      C1179   1.418       .  A
C1178      F1183   1.358       .  S
C1179      C1180   1.415   1_545  A
C1180      F1181   1.357       .  S
C1185      C1186   1.419       .  A
C1185      C1190   1.406       .  A
C1185      F1192   1.358       .  S
C1186      C1187   1.414       .  A
C1187      C1188   1.421       .  A
C1187      F1194   1.357       .  S
C1188      C1189   1.415       .  A
C1188      F1193   1.357       .  S
C1189      C1190   1.405       .  A
C1190      F1191   1.356       .  S
C1195      C1196   1.412       .  A
C1195      C1200   1.414       .  A
C1195      F1202   1.356       .  S
C1196      C1197   1.409       .  A
C1197      C1198   1.414       .  A
C1197      F1204   1.357       .  S
C1198      C1199   1.414       .  A
C1198      F1203   1.358       .  S
C1199      C1200   1.410       .  A
C1200      F1201   1.358       .  S
C1205      C1206   1.412       .  A
C1205      C1210   1.422       .  A
C1205      F1212   1.357       .  S
C1206      C1207   1.414   1_565  A
C1207      C1208   1.423       .  A
C1207      F1214   1.357       .  S
C1208      C1209   1.417   1_545  A
C1208      F1213   1.356       .  S
C1209      C1210   1.416       .  A
C1210      F1211   1.358       .  S
C1215      C1216   1.413   1_545  A
C1215      C1220   1.424       .  A
C1215      F1222   1.357       .  S
C1216      C1217   1.414       .  A
C1217      C1218   1.407       .  A
C1217      F1224   1.359       .  S
C1218      C1219   1.408   1_565  A
C1218      F1223   1.355       .  S
C1219      C1220   1.417       .  A
C1220      F1221   1.357       .  S
C1225      C1226   1.401   1_565  A
C1225      C1230   1.379       .  A
C1225      F1232   1.351       .  S
C1226      C1227   1.394       .  A
C1227      C1228   1.383       .  A
C1227      F1234   1.358       .  S
C1228      C1229   1.411       .  A
C1228      F1233   1.359       .  S
C1229      C1230   1.397   1_545  A
C1230      F1231   1.358       .  S
C1235      C1236   1.409       .  A
C1235      C1240   1.384   1_545  A
C1235      F1242   1.358   1_545  S
C1236      C1237   1.401       .  A
C1237      C1238   1.382       .  A
C1237      F1244   1.358       .  S
C1238      C1239   1.400       .  A
C1238      F1243   1.357       .  S
C1239      C1240   1.392   1_545  A
C1240      F1241   1.353       .  S
C1245      C1246   1.414   1_556  A
C1245      C1250   1.388       .  A
C1245      F1252   1.359       .  S
C1246      C1247   1.408       .  A
C1247      C1248   1.405       .  A
C1247      F1254   1.357       .  S
C1248      C1249   1.408       .  A
C1248      F1253   1.357       .  S
C1249      C1250   1.398   1_554  A
C1250      F1251   1.357       .  S
C1255      C1256   1.404   1_554  A
C1255      C1260   1.388       .  A
C1255      F1262   1.357       .  S
C1256      C1257   1.402       .  A
C1257      C1258   1.391       .  A
C1257      F1264   1.358       .  S
C1258      C1259   1.408       .  A
C1258      F1263   1.359       .  S
C1259      C1260   1.403   1_556  A
C1260      F1261   1.358       .  S
C1265      C1266   1.411       .  A
C1265      C1270   1.398       .  A
C1265      F1272   1.358       .  S
C1266      C1267   1.411       .  A
C1267      C1268   1.392       .  A
C1267      F1274   1.359       .  S
C1268      C1269   1.402       .  A
C1268      F1273   1.358       .  S
C1269      C1270   1.402       .  A
C1270      F1271   1.358       .  S
C1275      C1276   1.405       .  A
C1275      C1280   1.406       .  A
C1275      F1282   1.358       .  S
C1276      C1277   1.407       .  A
C1277      C1278   1.399       .  A
C1277      F1284   1.357       .  S
C1278      C1279   1.409       .  A
C1278      F1283   1.358       .  S
C1279      C1280   1.412       .  A
C1280      F1281   1.358       .  S
C1285      C1286   1.406       .  A
C1285      C1290   1.378       .  A
C1285      F1292   1.360       .  S
C1286      C1287   1.403       .  A
C1287      C1288   1.395       .  A
C1287      F1294   1.357       .  S
C1288      C1289   1.401       .  A
C1288      F1293   1.357       .  S
C1289      C1290   1.394       .  A
C1290      F1291   1.357       .  S
C1295      C1296   1.401   1_556  A
C1295      C1300   1.399       .  A
C1295      F1302   1.357       .  S
C1296      C1297   1.403       .  A
C1297      C1298   1.397       .  A
C1297      F1304   1.358       .  S
C1298      C1299   1.407   1_554  A
C1298      F1303   1.355       .  S
C1299      C1300   1.412       .  A
C1300      F1301   1.356       .  S
C1305      C1306   1.399       .  A
C1305      C1310   1.390       .  A
C1305      F1312   1.351       .  S
C1306      C1307   1.412   1_556  A
C1307      C1308   1.376       .  A
C1307      F1314   1.355       .  S
C1308      C1309   1.388   1_554  A
C1308      F1313   1.357       .  S
C1309      C1310   1.400       .  A
C1310      F1311   1.355       .  S
C1315      C1316   1.409       .  A
C1315      C1320   1.409       .  A
C1315      F1322   1.356       .  S
C1316      C1317   1.412   1_545  A
C1317      C1318   1.410       .  A
C1317      F1324   1.357       .  S
C1318      C1319   1.410   1_565  A
C1318      F1323   1.358       .  S
C1319      C1320   1.412       .  A
C1320      F1321   1.358       .  S
C1325      C1326   1.415       .  A
C1325      C1330   1.409       .  A
C1325      F1332   1.358       .  S
C1326      C1327   1.417   1_545  A
C1327      C1328   1.424       .  A
C1327      F1334   1.357       .  S
C1328      C1329   1.415   1_565  A
C1328      F1333   1.357       .  S
C1329      C1330   1.411       .  A
C1330      F1331   1.355       .  S
C1335      C1336   1.408       .  A
C1335      C1340   1.404       .  A
C1335      F1342   1.357       .  S
C1336      C1337   1.406       .  A
C1337      C1338   1.404       .  A
C1337      F1344   1.357       .  S
C1338      C1339   1.409       .  A
C1338      F1343   1.358       .  S
C1339      C1340   1.407       .  A
C1340      F1341   1.358       .  S
C1345      C1346   1.413       .  A
C1345      C1350   1.424       .  A
C1345      F1352   1.357       .  S
C1346      C1347   1.413       .  A
C1347      C1348   1.399       .  A
C1347      F1354   1.359       .  S
C1348      C1349   1.405       .  A
C1348      F1353   1.355       .  S
C1349      C1350   1.416       .  A
C1350      F1351   1.356       .  S
C1355      C1356   1.414       .  A
C1355      C1360   1.398       .  A
C1355      F1362   1.356       .  S
C1356      C1357   1.414       .  A
C1357      C1358   1.405       .  A
C1357      F1364   1.358       .  S
C1358      C1359   1.402       .  A
C1358      F1363   1.357       .  S
C1359      C1360   1.399       .  A
C1360      F1361   1.358       .  S
C1365      C1366   1.403       .  A
C1365      C1370   1.384       .  A
C1365      F1372   1.351       .  S
C1366      C1367   1.378       .  A
C1367      C1368   1.370       .  A
C1367      F1374   1.340       .  S
C1368      C1369   1.378       .  A
C1368      F1373   1.328       .  S
C1369      C1370   1.397       .  A
C1370      F1371   1.353       .  S
C1375      C1376   1.394   1_565  A
C1375      C1380   1.386       .  A
C1375      F1382   1.350       .  S
C1376      C1377   1.388       .  A
C1377      C1378   1.382       .  A
C1377      F1384   1.357       .  S
C1378      C1379   1.410       .  A
C1378      F1383   1.358       .  S
C1379      C1380   1.398   1_545  A
C1380      F1381   1.358       .  S
C1385      C1386   1.412   1_556  A
C1385      C1390   1.417       .  A
C1385      F1392   1.357       .  S
C1386      C1387   1.402       .  A
C1387      C1388   1.402       .  A
C1387      F1394   1.357       .  S
C1388      C1389   1.421       .  A
C1388      F1393   1.358       .  S
C1389      C1390   1.414   1_554  A
C1390      F1391   1.357       .  S
C1395      C1396   1.410       .  A
C1395      C1400   1.413       .  A
C1395      F1402   1.357       .  S
C1396      C1397   1.411   1_554  A
C1397      C1398   1.404       .  A
C1397      F1404   1.356       .  S
C1398      C1399   1.407   1_556  A
C1398      F1403   1.358       .  S
C1399      C1400   1.409       .  A
C1400      F1401   1.356       .  S
C1405      C1406   1.404       .  A
C1405      C1410   1.398       .  A
C1405      F1412   1.356       .  S
C1406      C1407   1.409       .  A
C1407      C1408   1.412       .  A
C1407      F1414   1.357       .  S
C1408      C1409   1.409       .  A
C1408      F1413   1.356       .  S
C1409      C1410   1.410       .  A
C1410      F1411   1.357       .  S
C1415      C1416   1.411       .  A
C1415      C1420   1.416       .  A
C1415      F1422   1.357       .  S
C1416      C1417   1.409       .  A
C1417      C1418   1.401       .  A
C1417      F1424   1.354       .  S
C1418      C1419   1.408       .  A
C1418      F1423   1.359       .  S
C1419      C1420   1.411       .  A
C1420      F1421   1.357       .  S
C1425      C1426   1.404       .  A
C1425      C1430   1.390       .  A
C1425      F1432   1.357       .  S
C1426      C1427   1.403       .  A
C1427      C1428   1.377       .  A
C1427      F1434   1.349       .  S
C1428      C1429   1.389       .  A
C1428      F1433   1.349       .  S
C1429      C1430   1.403       .  A
C1430      F1431   1.357       .  S
C1435      C1436   1.408       .  A
C1435      C1440   1.402       .  A
C1435      F1442   1.357       .  S
C1436      C1437   1.405       .  A
C1437      C1438   1.381       .  A
C1437      F1444   1.358       .  S
C1438      C1439   1.396       .  A
C1438      F1443   1.356       .  S
C1439      C1440   1.403       .  A
C1440      F1441   1.357       .  S
C1445      C1446   1.401       .  A
C1445      C1450   1.399       .  A
C1445      F1452   1.358       .  S
C1446      C1447   1.395   1_556  A
C1447      C1448   1.375       .  A
C1447      F1454   1.354       .  S
C1448      C1449   1.403       .  A
C1448      F1453   1.356       .  S
C1449      C1450   1.405   1_554  A
C1450      F1451   1.357       .  S
C1455      C1456   1.399   1_554  A
C1455      C1460   1.390   1_554  A
C1455      F1462   1.357       .  S
C1456      C1457   1.403       .  A
C1457      C1458   1.391       .  A
C1457      F1464   1.356       .  S
C1458      C1459   1.405       .  A
C1458      F1463   1.358       .  S
C1459      C1460   1.407       .  A
C1460      F1461   1.357   1_556  S
C1465      C1466   1.409   1_556  A
C1465      C1470   1.418       .  A
C1465      F1472   1.357       .  S
C1466      C1467   1.416       .  A
C1467      C1468   1.393       .  A
C1467      F1474   1.359       .  S
C1468      C1469   1.400   1_554  A
C1468      F1473   1.357       .  S
C1469      C1470   1.416       .  A
C1470      F1471   1.357       .  S
C1475      C1476   1.415   1_554  A
C1475      C1480   1.425       .  A
C1475      F1482   1.357       .  S
C1476      C1477   1.418       .  A
C1477      C1478   1.411       .  A
C1477      F1484   1.358       .  S
C1478      C1479   1.409       .  A
C1478      F1483   1.357       .  S
C1479      C1480   1.417   1_556  A
C1480      F1481   1.356       .  S
C1485      C1486   1.413   1_655  A
C1485      C1490   1.426       .  A
C1485      F1492   1.357       .  S
C1486      C1487   1.417       .  A
C1487      C1488   1.409       .  A
C1487      F1494   1.359       .  S
C1488      C1489   1.405       .  A
C1488      F1493   1.356       .  S
C1489      C1490   1.417   1_455  A
C1490      F1491   1.356       .  S
C1495      C1496   1.402   1_655  A
C1495      C1500   1.394       .  A
C1495      F1502   1.357       .  S
C1496      C1497   1.413       .  A
C1497      C1498   1.416       .  A
C1497      F1504   1.357       .  S
C1498      C1499   1.410       .  A
C1498      F1503   1.357       .  S
C1499      C1500   1.412   1_455  A
C1500      F1501   1.359       .  S
C1505      C1506   1.412       .  A
C1505      C1510   1.393       .  A
C1505      F1512   1.359       .  S
C1506      C1507   1.408   1_556  A
C1507      C1508   1.404       .  A
C1507      F1514   1.357       .  S
C1508      C1509   1.410       .  A
C1508      F1513   1.358       .  S
C1509      C1510   1.401   1_554  A
C1510      F1511   1.353       .  S
C1515      C1516   1.403       .  A
C1515      C1520   1.410       .  A
C1515      F1522   1.357       .  S
C1516      C1517   1.413   1_455  A
C1517      C1518   1.414       .  A
C1517      F1524   1.356       .  S
C1518      C1519   1.412   1_655  A
C1518      F1523   1.358       .  S
C1519      C1520   1.414       .  A
C1520      F1521   1.351       .  S
C1525      C1526   1.405   1_554  A
C1525      C1530   1.396       .  A
C1525      F1532   1.358       .  S
C1526      C1527   1.399       .  A
C1527      C1528   1.391       .  A
C1527      F1534   1.358       .  S
C1528      C1529   1.400       .  A
C1528      F1533   1.350       .  S
C1529      C1530   1.405   1_556  A
C1530      F1531   1.357       .  S
C1535      C1536   1.411       .  A
C1535      C1540   1.419       .  A
C1535      F1542   1.356       .  S
C1536      C1537   1.418   1_455  A
C1537      C1538   1.430       .  A
C1537      F1544   1.357       .  S
C1538      C1539   1.419   1_655  A
C1538      F1543   1.357       .  S
C1539      C1540   1.420       .  A
C1540      F1541   1.357       .  S
C1545      C1546   1.410       .  A
C1545      C1550   1.408       .  A
C1545      F1552   1.357       .  S
C1546      C1547   1.411       .  A
C1547      C1548   1.410       .  A
C1547      F1554   1.356       .  S
C1548      C1549   1.409       .  A
C1548      F1553   1.358       .  S
C1549      C1550   1.409       .  A
C1550      F1551   1.358       .  S
C1555      C1556   1.411       .  A
C1555      C1560   1.422       .  A
C1555      F1562   1.356       .  S
C1556      C1557   1.417       .  A
C1557      C1558   1.409       .  A
C1557      F1564   1.358       .  S
C1558      C1559   1.407       .  A
C1558      F1563   1.358       .  S
C1559      C1560   1.416       .  A
C1560      F1561   1.357       .  S
C1565      C1566   1.405   1_655  A
C1565      C1570   1.396       .  A
C1565      F1572   1.358       .  S
C1566      C1567   1.408       .  A
C1567      C1568   1.406       .  A
C1567      F1574   1.358       .  S
C1568      C1569   1.405       .  A
C1568      F1573   1.357       .  S
C1569      C1570   1.408   1_455  A
C1570      F1571   1.357       .  S
C1575      C1576   1.415   1_655  A
C1575      C1580   1.416       .  A
C1575      F1582   1.357       .  S
C1576      C1577   1.409       .  A
C1577      C1578   1.408       .  A
C1577      F1584   1.358       .  S
C1578      C1579   1.412       .  A
C1578      F1583   1.357       .  S
C1579      C1580   1.409   1_455  A
C1580      F1581   1.357       .  S
C1585      C1586   1.403       .  A
C1585      C1590   1.386       .  A
C1585      F1592   1.355       .  S
C1586      C1587   1.401   1_655  A
C1587      C1588   1.372       .  A
C1587      F1594   1.357       .  S
C1588      C1589   1.397   1_455  A
C1588      F1593   1.352       .  S
C1589      C1590   1.400       .  A
C1590      F1591   1.359       .  S
C1595      C1596   1.404       .  A
C1595      C1600   1.385       .  A
C1595      F1602   1.355       .  S
C1596      C1597   1.405       .  A
C1597      C1598   1.402       .  A
C1597      F1604   1.354       .  S
C1598      C1599   1.406       .  A
C1598      F1603   1.351       .  S
C1599      C1600   1.406       .  A
C1600      F1601   1.359       .  S
C1605      C1606   1.411       .  A
C1605      C1610   1.416       .  A
C1605      F1612   1.357       .  S
C1606      C1607   1.412       .  A
C1607      C1608   1.403       .  A
C1607      F1614   1.358       .  S
C1608      C1609   1.405       .  A
C1608      F1613   1.356       .  S
C1609      C1610   1.412       .  A
C1610      F1611   1.357       .  S
C1615      C1616   1.413       .  A
C1615      C1620   1.418       .  A
C1615      F1622   1.356       .  S
C1616      C1617   1.412       .  A
C1617      C1618   1.406       .  A
C1617      F1624   1.358       .  S
C1618      C1619   1.408       .  A
C1618      F1623   1.356       .  S
C1619      C1620   1.410       .  A
C1620      F1621   1.357       .  S
C1625      C1626   1.417   1_556  A
C1625      C1630   1.427       .  A
C1625      F1632   1.357       .  S
C1626      C1627   1.423       .  A
C1627      C1628   1.408       .  A
C1627      F1634   1.358       .  S
C1628      C1629   1.405       .  A
C1628      F1633   1.357       .  S
C1629      C1630   1.417   1_554  A
C1630      F1631   1.357       .  S
C1635      C1636   1.409   1_554  A
C1635      C1640   1.406       .  A
C1635      F1642   1.357       .  S
C1636      C1637   1.410       .  A
C1637      C1638   1.410       .  A
C1637      F1644   1.358       .  S
C1638      C1639   1.410       .  A
C1638      F1643   1.357       .  S
C1639      C1640   1.407   1_556  A
C1640      F1641   1.357       .  S
C1645      C1646   1.390       .  A
C1645      C1650   1.387       .  A
C1645      F1652   1.358       .  S
C1646      C1647   1.403       .  A
C1647      C1648   1.382       .  A
C1647      F1654   1.356       .  S
C1648      C1649   1.389       .  A
C1648      F1653   1.357       .  S
C1649      C1650   1.407       .  A
C1650      F1651   1.356       .  S
C1655      C1656   1.402       .  A
C1655      C1660   1.392       .  A
C1655      F1662   1.359       .  S
C1656      C1657   1.397   1_554  A
C1657      C1658   1.389       .  A
C1657      F1664   1.356       .  S
C1658      C1659   1.410       .  A
C1658      F1663   1.358       .  S
C1659      C1660   1.406   1_556  A
C1660      F1661   1.358       .  S
C1665      C1666   1.402   1_554  A
C1665      C1670   1.375       .  A
C1665      F1672   1.359       .  S
C1666      C1667   1.407       .  A
C1667      C1668   1.385       .  A
C1667      F1674   1.358       .  S
C1668      C1669   1.389       .  A
C1668      F1673   1.358       .  S
C1669      C1670   1.394   1_556  A
C1670      F1671   1.357       .  S
C1675      C1676   1.410       .  A
C1675      C1680   1.420       .  A
C1675      F1682   1.357       .  S
C1676      C1677   1.416       .  A
C1677      C1678   1.406       .  A
C1677      F1684   1.359       .  S
C1678      C1679   1.407       .  A
C1678      F1683   1.357       .  S
C1679      C1680   1.417       .  A
C1680      F1681   1.355       .  S
C1685      C1686   1.412       .  A
C1685      C1690   1.410       .  A
C1685      F1692   1.357       .  S
C1686      C1687   1.403   1_455  A
C1687      C1688   1.404       .  A
C1687      F1694   1.358       .  S
C1688      C1689   1.414   1_655  A
C1688      F1693   1.357       .  S
C1689      C1690   1.408       .  A
C1690      F1691   1.357       .  S
C1695      C1696   1.420   1_655  A
C1695      C1700   1.429       .  A
C1695      F1702   1.357       .  S
C1696      C1697   1.416       .  A
C1697      C1698   1.405       .  A
C1697      F1704   1.359       .  S
C1698      C1699   1.410       .  A
C1698      F1703   1.357       .  S
C1699      C1700   1.415   1_455  A
C1700      F1701   1.356       .  S
C1705      C1706   1.415       .  A
C1705      C1710   1.419       .  A
C1705      F1712   1.356       .  S
C1706      C1707   1.410       .  A
C1707      C1708   1.416       .  A
C1707      F1714   1.357       .  S
C1708      C1709   1.414       .  A
C1708      F1713   1.356       .  S
C1709      C1710   1.411       .  A
C1710      F1711   1.357       .  S
C1715      C1716   1.403       .  A
C1715      C1720   1.388       .  A
C1715      F1722   1.358       .  S
C1716      C1717   1.403       .  A
C1717      C1718   1.378       .  A
C1717      F1724   1.354       .  S
C1718      C1719   1.400       .  A
C1718      F1723   1.357       .  S
C1719      C1720   1.396       .  A
C1720      F1721   1.348       .  S
C1725      C1726   1.405       .  A
C1725      C1730   1.399       .  A
C1725      F1732   1.358       .  S
C1726      C1727   1.402       .  A
C1727      C1728   1.393       .  A
C1727      F1734   1.356       .  S
C1728      C1729   1.408       .  A
C1728      F1733   1.358       .  S
C1729      C1730   1.411       .  A
C1730      F1731   1.357       .  S
C1735      C1736   1.397       .  A
C1735      C1740   1.381       .  A
C1735      F1742   1.359       .  S
C1736      C1737   1.394   1_455  A
C1737      C1738   1.383       .  A
C1737      F1744   1.357       .  S
C1738      C1739   1.404   1_655  A
C1738      F1743   1.358       .  S
C1739      C1740   1.403       .  A
C1740      F1741   1.358       .  S
C1745      C1746   1.409   1_556  A
C1745      C1750   1.418       .  A
C1745      F1752   1.357       .  S
C1746      C1747   1.418       .  A
C1747      C1748   1.409       .  A
C1747      F1754   1.359       .  S
C1748      C1749   1.406       .  A
C1748      F1753   1.357       .  S
C1749      C1750   1.419   1_554  A
C1750      F1751   1.354       .  S
C1755      C1756   1.399       .  A
C1755      C1760   1.396       .  A
C1755      F1762   1.358       .  S
C1756      C1757   1.414   1_556  A
C1757      C1758   1.413       .  A
C1757      F1764   1.357       .  S
C1758      C1759   1.408   1_554  A
C1758      F1763   1.357       .  S
C1759      C1760   1.415       .  A
C1760      F1761   1.359       .  S
C1765      C1766   1.411       .  A
C1765      C1770   1.421       .  A
C1765      F1772   1.357       .  S
C1766      C1767   1.417       .  A
C1767      C1768   1.397       .  A
C1767      F1774   1.359       .  S
C1768      C1769   1.402       .  A
C1768      F1773   1.356       .  S
C1769      C1770   1.413       .  A
C1770      F1771   1.357       .  S
C1775      C1776   1.410       .  A
C1775      C1780   1.415       .  A
C1775      F1782   1.357       .  S
C1776      C1777   1.408       .  A
C1777      C1778   1.407       .  A
C1777      F1784   1.356       .  S
C1778      C1779   1.412       .  A
C1778      F1783   1.358       .  S
C1779      C1780   1.412       .  A
C1780      F1781   1.357       .  S
C1785      C1786   1.402       .  A
C1785      C1790   1.382       .  A
C1785      F1792   1.358       .  S
C1786      C1787   1.412       .  A
C1787      C1788   1.380       .  A
C1787      F1794   1.357       .  S
C1788      C1789   1.391       .  A
C1788      F1793   1.359       .  S
C1789      C1790   1.398       .  A
C1790      F1791   1.356       .  S
C1795      C1796   1.400       .  A
C1795      C1800   1.381       .  A
C1795      F1802   1.352       .  S
C1796      C1797   1.403       .  A
C1797      C1798   1.397       .  A
C1797      F1804   1.353       .  S
C1798      C1799   1.405       .  A
C1798      F1803   1.358       .  S
C1799      C1800   1.403       .  A
C1800      F1801   1.360       .  S
C1805      C1806   1.415   1_554  A
C1805      C1810   1.378       .  A
C1805      F1812   1.359       .  S
C1806      C1807   1.396       .  A
C1807      C1808   1.389       .  A
C1807      F1814   1.358       .  S
C1808      C1809   1.404   1_556  A
C1808      F1813   1.357       .  S
C1809      C1810   1.385       .  A
C1810      F1811   1.358       .  S
C1815      C1816   1.412       .  A
C1815      C1820   1.392       .  A
C1815      F1822   1.357       .  S
C1816      C1817   1.401   1_554  A
C1817      C1818   1.382       .  A
C1817      F1824   1.358       .  S
C1818      C1819   1.404   1_556  A
C1818      F1823   1.359       .  S
C1819      C1820   1.397       .  A
C1820      F1821   1.358       .  S
C1825      C1826   1.412       .  A
C1825      C1830   1.418       .  A
C1825      F1832   1.357       .  S
C1826      C1827   1.410       .  A
C1827      C1828   1.405       .  A
C1827      F1834   1.357       .  S
C1828      C1829   1.410       .  A
C1828      F1833   1.358       .  S
C1829      C1830   1.413       .  A
C1830      F1831   1.357       .  S
C1835      C1836   1.411       .  A
C1835      C1840   1.408       .  A
C1835      F1842   1.358       .  S
C1836      C1837   1.413       .  A
C1837      C1838   1.418       .  A
C1837      F1844   1.356       .  S
C1838      C1839   1.410       .  A
C1838      F1843   1.357       .  S
C1839      C1840   1.410       .  A
C1840      F1841   1.357       .  S
C1845      C1846   1.407       .  A
C1845      C1850   1.398       .  A
C1845      F1852   1.356       .  S
C1846      C1847   1.409       .  A
C1847      C1848   1.416       .  A
C1847      F1854   1.357       .  S
C1848      C1849   1.414       .  A
C1848      F1853   1.357       .  S
C1849      C1850   1.412       .  A
C1850      F1851   1.359       .  S
C1855      C1856   1.411       .  A
C1855      C1860   1.405       .  A
C1855      F1862   1.358       .  S
C1856      C1857   1.406       .  A
C1857      C1858   1.413       .  A
C1857      F1864   1.356       .  S
C1858      C1859   1.410       .  A
C1858      F1863   1.357       .  S
C1859      C1860   1.404       .  A
C1860      F1861   1.357       .  S
C1865      C1866   1.415       .  A
C1865      C1870   1.424       .  A
C1865      F1872   1.357       .  S
C1866      C1867   1.404       .  A
C1867      C1868   1.405       .  A
C1867      F1874   1.356       .  S
C1868      C1869   1.422       .  A
C1868      F1873   1.358       .  S
C1869      C1870   1.417       .  A
C1870      F1871   1.357       .  S
C1875      C1876   1.416       .  A
C1875      C1880   1.409       .  A
C1875      F1882   1.358       .  S
C1876      C1877   1.412       .  A
C1877      C1878   1.426       .  A
C1877      F1884   1.356       .  S
C1878      C1879   1.418       .  A
C1878      F1883   1.356       .  S
C1879      C1880   1.405       .  A
C1880      F1881   1.357       .  S
C1885      C1886   1.416       .  A
C1885      C1890   1.425       .  A
C1885      F1892   1.357       .  S
C1886      C1887   1.423       .  A
C1887      C1888   1.406       .  A
C1887      F1894   1.358       .  S
C1888      C1889   1.402       .  A
C1888      F1893   1.357       .  S
C1889      C1890   1.416       .  A
C1890      F1891   1.357       .  S
C1895      C1896   1.408       .  A
C1895      C1900   1.405       .  A
C1895      F1902   1.358       .  S
C1896      C1897   1.409       .  A
C1897      C1898   1.407       .  A
C1897      F1904   1.357       .  S
C1898      C1899   1.407       .  A
C1898      F1903   1.357       .  S
C1899      C1900   1.409       .  A
C1900      F1901   1.357       .  S
C1905      C1906   1.394       .  A
C1905      C1910   1.386       .  A
C1905      F1912   1.356       .  S
C1906      C1907   1.408       .  A
C1907      C1908   1.385       .  A
C1907      F1914   1.357       .  S
C1908      C1909   1.399       .  A
C1908      F1913   1.356       .  S
C1909      C1910   1.414       .  A
C1910      F1911   1.358       .  S
C1915      C1916   1.419       .  A
C1915      C1920   1.426       .  A
C1915      F1922   1.357       .  S
C1916      C1917   1.420       .  A
C1917      C1918   1.408       .  A
C1917      F1924   1.358       .  S
C1918      C1919   1.405       .  A
C1918      F1923   1.357       .  S
C1919      C1920   1.415       .  A
C1920      F1921   1.356       .  S
C1925      C1926   1.412       .  A
C1925      C1930   1.411       .  A
C1925      F1932   1.358       .  S
C1926      C1927   1.413       .  A
C1927      C1928   1.418       .  A
C1927      F1934   1.356       .  S
C1928      C1929   1.411       .  A
C1928      F1933   1.356       .  S
C1929      C1930   1.411       .  A
C1930      F1931   1.356       .  S
C1935      C1936   1.416       .  A
C1935      C1940   1.413       .  A
C1935      F1942   1.358       .  S
C1936      C1937   1.412       .  A
C1937      C1938   1.422       .  A
C1937      F1944   1.356       .  S
C1938      C1939   1.417       .  A
C1938      F1943   1.356       .  S
C1939      C1940   1.408       .  A
C1940      F1941   1.357       .  S
C1945      C1946   1.411       .  A
C1945      C1950   1.419       .  A
C1945      F1952   1.357       .  S
C1946      C1947   1.410       .  A
C1947      C1948   1.409       .  A
C1947      F1954   1.357       .  S
C1948      C1949   1.413       .  A
C1948      F1953   1.358       .  S
C1949      C1950   1.414       .  A
C1950      F1951   1.357       .  S
C1955      C1956   1.405       .  A
C1955      C1960   1.382       .  A
C1955      F1962   1.358       .  S
C1956      C1957   1.399       .  A
C1957      C1958   1.391       .  A
C1957      F1964   1.358       .  S
C1958      C1959   1.408       .  A
C1958      F1963   1.356       .  S
C1959      C1960   1.399       .  A
C1960      F1961   1.359       .  S
C1965      C1966   1.412       .  A
C1965      C1970   1.419       .  A
C1965      F1972   1.357       .  S
C1966      C1967   1.408       .  A
C1967      C1968   1.407       .  A
C1967      F1974   1.357       .  S
C1968      C1969   1.415       .  A
C1968      F1973   1.358       .  S
C1969      C1970   1.415       .  A
C1970      F1971   1.357       .  S
C1975      C1976   1.413       .  A
C1975      C1980   1.418       .  A
C1975      F1982   1.357       .  S
C1976      C1977   1.409       .  A
C1977      C1978   1.406       .  A
C1977      F1984   1.358       .  S
C1978      C1979   1.410       .  A
C1978      F1983   1.354       .  S
C1979      C1980   1.411       .  A
C1980      F1981   1.357       .  S
C1985      C1986   1.412       .  A
C1985      C1990   1.400       .  A
C1985      F1992   1.359       .  S
C1986      C1987   1.409       .  A
C1987      C1988   1.419       .  A
C1987      F1994   1.357       .  S
C1988      C1989   1.416       .  A
C1988      F1993   1.357       .  S
C1989      C1990   1.404       .  A
C1990      F1991   1.356       .  S
C1995      C1996   1.413       .  A
C1995      C2000   1.404       .  A
C1995      F2002   1.359       .  S
C1996      C1997   1.413       .  A
C1997      C1998   1.419       .  A
C1997      F2004   1.357       .  S
C1998      C1999   1.413       .  A
C1998      F2003   1.357       .  S
C1999      C2000   1.408       .  A
C2000      F2001   1.355       .  S
C2005      C2006   1.411       .  A
C2005      C2010   1.391       .  A
C2005      F2012   1.358       .  S
C2006      C2007   1.407       .  A
C2007      C2008   1.399       .  A
C2007      F2014   1.354       .  S
C2008      C2009   1.405       .  A
C2008      F2013   1.356       .  S
C2009      C2010   1.405       .  A
C2010      F2011   1.358       .  S
C2015      C2016   1.395       .  A
C2015      C2020   1.381       .  A
C2015      F2022   1.356       .  S
C2016      C2017   1.395       .  A
C2017      C2018   1.382       .  A
C2017      F2024   1.359       .  S
C2018      C2019   1.408       .  A
C2018      F2023   1.358       .  S
C2019      C2020   1.403       .  A
C2020      F2021   1.358       .  S
C2025      C2026   1.409       .  A
C2025      C2030   1.388       .  A
C2025      F2032   1.357       .  S
C2026      C2027   1.400       .  A
C2027      C2028   1.384       .  A
C2027      F2034   1.357       .  S
C2028      C2029   1.396       .  A
C2028      F2033   1.342       .  S
C2029      C2030   1.404       .  A
C2030      F2031   1.358       .  S
C2035      C2036   1.415       .  A
C2035      C2040   1.407       .  A
C2035      F2042   1.358       .  S
C2036      C2037   1.412       .  A
C2037      C2038   1.419       .  A
C2037      F2044   1.357       .  S
C2038      C2039   1.414       .  A
C2038      F2043   1.357       .  S
C2039      C2040   1.406       .  A
C2040      F2041   1.357       .  S
C2045      C2046   1.416       .  A
C2045      C2050   1.409       .  A
C2045      F2052   1.356       .  S
C2046      C2047   1.413       .  A
C2047      C2048   1.424       .  A
C2047      F2054   1.357       .  S
C2048      C2049   1.417       .  A
C2048      F2053   1.357       .  S
C2049      C2050   1.405       .  A
C2050      F2051   1.357       .  S
C2055      C2056   1.413       .  A
C2055      C2060   1.413       .  A
C2055      F2062   1.358       .  S
C2056      C2057   1.412       .  A
C2057      C2058   1.412       .  A
C2057      F2064   1.358       .  S
C2058      C2059   1.410       .  A
C2058      F2063   1.357       .  S
C2059      C2060   1.410       .  A
C2060      F2061   1.357       .  S
C2065      C2066   1.417       .  A
C2065      C2070   1.427       .  A
C2065      F2072   1.356       .  S
C2066      C2067   1.418       .  A
C2067      C2068   1.411       .  A
C2067      F2074   1.358       .  S
C2068      C2069   1.409       .  A
C2068      F2073   1.355       .  S
C2069      C2070   1.418       .  A
C2070      F2071   1.357       .  S
C2075      C2076   1.402       .  A
C2075      C2080   1.389       .  A
C2075      F2082   1.357       .  S
C2076      C2077   1.401       .  A
C2077      C2078   1.380       .  A
C2077      F2084   1.358       .  S
C2078      C2079   1.395       .  A
C2078      F2083   1.359       .  S
C2079      C2080   1.397       .  A
C2080      F2081   1.357       .  S
C2085      C2086   1.403       .  A
C2085      C2090   1.386       .  A
C2085      F2092   1.348       .  S
C2086      C2087   1.402       .  A
C2087      C2088   1.381       .  A
C2087      F2094   1.355       .  S
C2088      C2089   1.393       .  A
C2088      F2093   1.356       .  S
C2089      C2090   1.395       .  A
C2090      F2091   1.358       .  S
C2095      C2096   1.410       .  A
C2095      C2100   1.394       .  A
C2095      F2102   1.349       .  S
C2096      C2097   1.408       .  A
C2097      C2098   1.376       .  A
C2097      F2104   1.359       .  S
C2098      C2099   1.396       .  A
C2098      F2103   1.353       .  S
C2099      C2100   1.392       .  A
C2100      F2101   1.350       .  S
C2105      C2106   1.406       .  A
C2105      C2110   1.392       .  A
C2105      F2112   1.358       .  S
C2106      C2107   1.408       .  A
C2107      C2108   1.403       .  A
C2107      F2114   1.358       .  S
C2108      C2109   1.405       .  A
C2108      F2113   1.358       .  S
C2109      C2110   1.404       .  A
C2110      F2111   1.358       .  S
C2115      C2116   1.406       .  A
C2115      C2120   1.397       .  A
C2115      F2122   1.359       .  S
C2116      C2117   1.407       .  A
C2117      C2118   1.405       .  A
C2117      F2124   1.357       .  S
C2118      C2119   1.405       .  A
C2118      F2123   1.357       .  S
C2119      C2120   1.406       .  A
C2120      F2121   1.357       .  S
C2125      C2126   1.417       .  A
C2125      C2130   1.406       .  A
C2125      F2132   1.358       .  S
C2126      C2127   1.414       .  A
C2127      C2128   1.421       .  A
C2127      F2134   1.357       .  S
C2128      C2129   1.416       .  A
C2128      F2133   1.356       .  S
C2129      C2130   1.407       .  A
C2130      F2131   1.357       .  S
C2135      C2136   1.415       .  A
C2135      C2140   1.412       .  A
C2135      F2142   1.357       .  S
C2136      C2137   1.413       .  A
C2137      C2138   1.421       .  A
C2137      F2144   1.356       .  S
C2138      C2139   1.414       .  A
C2138      F2143   1.357       .  S
C2139      C2140   1.408       .  A
C2140      F2141   1.356       .  S
C2145      C2146   1.398       .  A
C2145      C2150   1.394       .  A
C2145      F2152   1.358       .  S
C2146      C2147   1.397       .  A
C2147      C2148   1.378       .  A
C2147      F2154   1.358       .  S
C2148      C2149   1.402       .  A
C2148      F2153   1.356       .  S
C2149      C2150   1.407       .  A
C2150      F2151   1.358       .  S
C2155      C2156   1.389       .  A
C2155      C2160   1.373       .  A
C2155      F2162   1.360       .  S
C2156      C2157   1.395       .  A
C2157      C2158   1.392       .  A
C2157      F2164   1.346       .  S
C2158      C2159   1.401       .  A
C2158      F2163   1.352       .  S
C2159      C2160   1.406       .  A
C2160      F2161   1.340       .  S
C2165      C2166   1.404       .  A
C2165      C2170   1.391       .  A
C2165      F2172   1.358       .  S
C2166      C2167   1.399       .  A
C2167      C2168   1.395       .  A
C2167      F2174   1.358       .  S
C2168      C2169   1.403       .  A
C2168      F2173   1.357       .  S
C2169      C2170   1.397       .  A
C2170      F2171   1.358       .  S
C2175      C2176   1.401       .  A
C2175      C2180   1.373       .  A
C2175      F2182   1.359       .  S
C2176      C2177   1.393       .  A
C2177      C2178   1.379       .  A
C2177      F2184   1.358       .  S
C2178      C2179   1.399       .  A
C2178      F2183   1.355       .  S
C2179      C2180   1.391       .  A
C2180      F2181   1.359       .  S
