geometry optimzed in LAMMPS
_audit_creation_date              2020-12-01 
_audit_creation_method            'lammps2cif' 
_symmetry_space_group_name_H-M    'P1' 
_symmetry_Int_Tables_number       1 
_symmetry_cell_setting            triclinic 
loop_ 
_symmetry_equiv_pos_as_xyz 
  x,y,z 
_cell_length_a                    52.68314305 
_cell_length_b                    52.63646745503932 
_cell_length_c                    45.37132738545748 
_cell_angle_alpha                 90.9483172397537 
_cell_angle_beta                  90.40077644240176 
_cell_angle_gamma                 119.97062259774101 
loop_ 
_atom_site_label 
_atom_site_type_symbol 
_atom_site_fract_x 
_atom_site_fract_y 
_atom_site_fract_z 
_atom_site_charge 
C1          C  0.26007632  0.38190035  0.15497660     0.79900
N2          N  0.25672290  0.35745279  0.14058673    -0.78400
C3          C  0.25030423  0.35330318  0.11116008     0.82300
N4          N  0.24720665  0.37369246  0.09605812    -0.78400
C5          C  0.25141799  0.39854988  0.10999862     0.82400
N6          N  0.25790736  0.40257190  0.13933059    -0.80100
C7          C  0.25669164  0.37638995  0.42887157     0.79900
N8          N  0.25342432  0.39754183  0.44300784    -0.78400
C9          C  0.24721444  0.39542658  0.47221466     0.82300
N10         N  0.24439482  0.37216409  0.48741305    -0.78400
C11         C  0.24871337  0.35156680  0.47371352     0.82400
N12         N  0.25484438  0.35378008  0.44457039    -0.80100
C13         C  0.10485569  0.37704805  0.42766367     0.79900
N14         N  0.08478677  0.35349012  0.44269420    -0.78400
C15         C  0.08916682  0.35051039  0.47167613     0.82300
N16         N  0.11370888  0.37139384  0.48588133    -0.78400
C17         C  0.13345006  0.39552012  0.47139028     0.82400
N18         N  0.12897595  0.39829717  0.44233845    -0.80100
C19         C  0.11092848  0.38039313  0.15408496     0.79900
N20         N  0.08907349  0.35679819  0.13926749    -0.78400
C21         C  0.09094687  0.35312826  0.10975643     0.82300
N22         N  0.11472580  0.37314882  0.09497670    -0.78400
C23         C  0.13603931  0.39730398  0.10939092     0.82400
N24         N  0.13403476  0.40081359  0.13880767    -0.80100
C25         C  0.10843989  0.22742592  0.15330783     0.79900
N26         N  0.08741437  0.23076857  0.13918774    -0.78400
C27         C  0.09023959  0.23805170  0.11022433     0.82300
N28         N  0.11417739  0.24199958  0.09531300    -0.78400
C29         C  0.13476719  0.23784782  0.10895413     0.82400
N30         N  0.13172477  0.23045674  0.13777186    -0.80100
C31         C  0.10469717  0.22485964  0.42817373     0.79900
N32         N  0.08405856  0.22732373  0.44379592    -0.78400
C33         C  0.08814113  0.23457684  0.47300109     0.82300
N34         N  0.11306444  0.23921681  0.48690836    -0.78400
C35         C  0.13344438  0.23582848  0.47185003     0.82400
N36         N  0.12921240  0.22869137  0.44251573    -0.80100
C37         C  0.37166948  0.10849366  0.42701650     0.79900
N38         N  0.39290460  0.13294484  0.44135718    -0.78400
C39         C  0.39019847  0.13788392  0.47040273     0.82300
N40         N  0.36620224  0.11819679  0.48518767    -0.78400
C41         C  0.34539249  0.09332024  0.47129076     0.82400
N42         N  0.34829281  0.08856581  0.44234827    -0.80100
C43         C  0.37610387  0.11426712  0.15490339     0.79900
N44         N  0.39644369  0.13763252  0.13985644    -0.78400
C45         C  0.39229498  0.14054361  0.11082530     0.82300
N46         N  0.36764520  0.11983197  0.09659414    -0.78400
C47         C  0.34758462  0.09591937  0.11113510     0.82400
N48         N  0.35189747  0.09317030  0.14022808    -0.80100
C49         C  0.37574528  0.26161473  0.15555913     0.79900
N50         N  0.35146598  0.25814683  0.14104741    -0.78400
C51         C  0.34708720  0.25052927  0.11188478     0.82300
N52         N  0.36718550  0.24643752  0.09715035    -0.78400
C53         C  0.39189167  0.25069289  0.11125100     0.82400
N54         N  0.39610183  0.25837262  0.14032032    -0.80100
C55         C  0.37160295  0.25923503  0.42751931     0.79900
N56         N  0.39283758  0.25618929  0.44150877    -0.78400
C57         C  0.39056700  0.24987770  0.47067528     0.82300
N58         N  0.36704777  0.24668740  0.48588138    -0.78400
C59         C  0.34628404  0.25059132  0.47226146     0.82400
N60         N  0.34873405  0.25692346  0.44325103    -0.80100
C61         C  0.22357131  0.10933884  0.42754292     0.79900
N62         N  0.22682144  0.13374275  0.44188248    -0.78400
C63         C  0.23411372  0.13833284  0.47110547     0.82300
N64         N  0.23801773  0.11836514  0.48605671    -0.78400
C65         C  0.23394340  0.09357431  0.47210140     0.82400
N66         N  0.22668603  0.08916004  0.44300271    -0.80100
C67         C  0.22466750  0.11399091  0.15448991     0.79900
N68         N  0.22803937  0.09303071  0.14007078    -0.78400
C69         C  0.23509283  0.09582124  0.11109498     0.82300
N70         N  0.23874842  0.11965742  0.09643244    -0.78400
C71         C  0.23458793  0.14023140  0.11042915     0.82400
N72         N  0.22743380  0.13725860  0.13933151    -0.80100
O73         O  0.26615732  0.31909364  0.10293961    -0.75600
O74         O  0.22851385  0.31577761  0.07457554    -0.54600
C75         C  0.24802642  0.32762023  0.09532820     0.78100
O76         O  0.31314426  0.26728787  0.48121591    -0.60200
O77         O  0.31088914  0.23024643  0.00958867    -0.53300
C78         C  0.32213007  0.24963832  0.48897059     0.70100
O79         O  0.26590085  0.31899328  0.48314820    -0.74800
O80         O  0.22834525  0.31540450  0.00960274    -0.55400
C81         C  0.24753278  0.32734802  0.49025689     0.76100
O82         O  0.31359110  0.26720008  0.10372857    -0.60000
O83         O  0.31054029  0.23001385  0.07440277    -0.53100
C84         C  0.32196149  0.24893072  0.09578627     0.72700
Zr85       Zr  0.27864169  0.28202331  0.08690179     2.54700
O86         O  0.32557532  0.32744979  0.08660235    -0.80500
O87         O  0.27724249  0.28050006  0.14057042    -0.93900
Zr88       Zr  0.27952428  0.28266909  0.99918823     2.64700
O89         O  0.32604080  0.32836368  0.00452286    -0.98900
O90         O  0.28492140  0.28852114  0.44617396    -0.80900
O91         O  0.26566437  0.29749741  0.04310538    -0.84300
O92         O  0.29384798  0.26868471  0.04295167    -2.19000
O93         O  0.21857733  0.17384380  0.10183245    -0.67700
O94         O  0.25427530  0.17479667  0.07278961    -0.52300
C95         C  0.23606540  0.16461606  0.09402447     0.71100
O96         O  0.16803069  0.22061794  0.47948436    -0.60600
O97         O  0.17128391  0.25873139  0.00864244    -0.52600
C98         C  0.15921120  0.23844620  0.48754700     0.72900
O99         O  0.21850710  0.17266572  0.47870743    -0.72000
O100        O  0.25410420  0.17432551  0.00804963    -0.50700
C101        C  0.23621924  0.16388266  0.48692639     0.74300
O102        O  0.16741026  0.22094562  0.09917544    -0.67300
O103        O  0.17125205  0.25922289  0.07271007    -0.54500
C104        C  0.15936479  0.23954071  0.09244620     0.72600
Zr105      Zr  0.20309871  0.20728112  0.08330139     2.77500
O106        O  0.15812245  0.16053162  0.07567676    -0.98100
O107        O  0.19661805  0.20420818  0.13644114    -0.78900
Zr108      Zr  0.20404816  0.20777997  0.99589115     2.70100
O109        O  0.15806588  0.16131840  0.99622035    -0.80100
O110        O  0.20385702  0.20827022  0.44209141    -0.99200
Zr111      Zr  0.21342066  0.27370656  0.04141251     2.21500
Zr112      Zr  0.26915986  0.21635769  0.04115973     2.11100
O113        O  0.21690434  0.19230262  0.03960830    -2.47900
O114        O  0.18887468  0.22145666  0.03965741    -0.79900
O115        O  0.25487652  0.23012938  0.08562134    -0.72100
O116        O  0.22811188  0.26013166  0.49664291    -2.33100
O117        O  0.22684706  0.25915086  0.08571812    -2.29300
O118        O  0.25659103  0.23168831  0.49690620    -0.73900
H119        H  0.31486140  0.27689233  0.04345349     0.78100
H120        H  0.22197804  0.26642250  0.47946854     0.79200
H121        H  0.20843193  0.17123883  0.03916554     0.81400
H122        H  0.22046730  0.26537220  0.10290366     0.79000
H123        H  0.26455249  0.27947366  0.43843107     0.42100
H124        H  0.22410144  0.21395461  0.43642945     0.41000
H125        H  0.16235691  0.14813618  0.00788378     0.40700
H126        H  0.14836777  0.15651433  0.09498940     0.38600
H127        H  0.21679801  0.21462099  0.14481145     0.41800
H128        H  0.26017219  0.28254596  0.14601451     0.36600
H129        H  0.32579018  0.33612880  0.06734991     0.42700
H130        H  0.34080764  0.32227524  0.00788772     0.39100
H131        H  0.14580416  0.16505813  0.06266137     0.44000
H132        H  0.29451438  0.29919555  0.14727391     0.42700
H133        H  0.33416031  0.33443499  0.48624288     0.42900
H134        H  0.19196001  0.18734099  0.43598744     0.41700
O135        O  0.03966268  0.31752743  0.48046804    -0.75600
O136        O  0.07401058  0.31426193  0.00968589    -0.54600
C137        C  0.06635851  0.32597272  0.48796818     0.78100
O138        O  0.44168092  0.26704260  0.10285811    -0.60200
O139        O  0.40705630  0.23071478  0.07298623    -0.53300
C140        C  0.41495724  0.24919675  0.09472615     0.70100
O141        O  0.04073506  0.32028335  0.10079857    -0.74800
O142        O  0.07446225  0.31534416  0.07364631    -0.55400
C143        C  0.06720707  0.32793654  0.09373867     0.76100
O144        O  0.44066615  0.26588694  0.47816045    -0.60000
O145        O  0.40680409  0.22987853  0.00796736    -0.53100
C146        C  0.41424497  0.24846735  0.48634259     0.72700
Zr147      Zr  0.48990109  0.28066345  0.99701491     2.54700
O148        O  0.48833273  0.32606290  0.00071235    -0.80500
O149        O  0.49088777  0.28036583  0.44212012    -0.93900
Zr150      Zr  0.49089309  0.28345631  0.08442542     2.64700
O151        O  0.48743294  0.32726380  0.07671022    -0.98900
O152        O  0.49292224  0.29152144  0.13755623    -0.80900
O153        O  0.01910173  0.29739125  0.04081230    -0.84300
O154        O  0.46184996  0.26843465  0.04055028    -2.19000
O155        O  0.44047158  0.17143292  0.47887825    -0.67700
O156        O  0.40650117  0.17405211  0.00842587    -0.52300
C157        C  0.41396694  0.16320034  0.48643043     0.71100
O158        O  0.04023113  0.22213086  0.10215765    -0.60600
O159        O  0.07416300  0.25847006  0.07366730    -0.52600
C160        C  0.06675055  0.23985026  0.09446942     0.72900
O161        O  0.44198595  0.17393010  0.10253040    -0.72000
O162        O  0.40729003  0.17531788  0.07320701    -0.50700
C163        C  0.41526288  0.16493463  0.09453800     0.74300
O164        O  0.03859190  0.21887834  0.48169252    -0.67300
O165        O  0.07350702  0.25736425  0.00945555    -0.54500
C166        C  0.06538149  0.23694720  0.48931086     0.72600
Zr167      Zr  0.49008999  0.20545703  0.99823547     2.77500
O168        O  0.48917864  0.15913018  0.00413026    -0.98100
O169        O  0.48962548  0.20004612  0.44362887    -0.78900
Zr170      Zr  0.49133591  0.20842772  0.08594699     2.70100
O171        O  0.49111371  0.16203576  0.08480661    -0.80100
O172        O  0.49312609  0.21095284  0.13962317    -0.99200
Zr173      Zr  0.04675100  0.27281996  0.04137516     2.21500
Zr174      Zr  0.43431761  0.21618741  0.04092439     2.11100
O175        O  0.46228376  0.19185570  0.04191961    -2.47900
O176        O  0.01873891  0.22063354  0.04166728    -0.79900
O177        O  0.46183777  0.22941422  0.49572683    -0.72100
O178        O  0.01931453  0.26020855  0.08556117    -2.33100
O179        O  0.01857927  0.25868574  0.49658997    -2.29300
O180        O  0.46267088  0.23160303  0.08556671    -0.73900
H181        H  0.44908143  0.27667958  0.04029630     0.78100
H182        H  0.03205482  0.26691404  0.10276863     0.79200
H183        H  0.44968497  0.17084091  0.04203099     0.81400
H184        H  0.03082912  0.26429227  0.47949103     0.79000
H185        H  0.00007205  0.27431366  0.14433676     0.42100
H186        H  0.47939916  0.21788279  0.14507686     0.41000
H187        H  0.97053666  0.14717129  0.07858682     0.40700
H188        H  0.48951135  0.15232789  0.98373506     0.38600
H189        H  0.49017476  0.21783819  0.43602834     0.41800
H190        H  0.00518866  0.28119832  0.43656356     0.36600
H191        H  0.00597405  0.34006606  0.01314559     0.42700
H192        H  0.49149182  0.33698518  0.09642128     0.39100
H193        H  0.50938914  0.16602184  0.51305595     0.44000
H194        H  0.49402170  0.29980379  0.43646132     0.42700
H195        H  0.50491416  0.34013940  0.06510267     0.42900
H196        H  0.48331184  0.19026480  0.14577425     0.43200
O197        O  0.26314884  0.44540968  0.47995194    -0.75600
O198        O  0.22740417  0.41133883  0.00798543    -0.54600
C199        C  0.24538324  0.41900194  0.48778114     0.78100
O200        O  0.31403768  0.04580849  0.10254051    -0.60200
O201        O  0.31093076  0.07952348  0.07394977    -0.53300
C202        C  0.32242504  0.07228435  0.09495873     0.70100
O203        O  0.26719255  0.44810639  0.10155042    -0.74800
O204        O  0.23040197  0.41309285  0.07236743    -0.55400
C205        C  0.24954057  0.42131504  0.09348628     0.76100
O206        O  0.31195434  0.04378089  0.47992403    -0.60000
O207        O  0.30969299  0.07859205  0.00901142    -0.53100
C208        C  0.32097917  0.07059484  0.48782570     0.72700
Zr209      Zr  0.27766837  0.49473874  0.99675583     2.54700
O210        O  0.32421709  0.49541752  0.99686304    -0.80500
O211        O  0.27848005  0.99487515  0.44365750    -0.93900
Zr212      Zr  0.28020951  0.49676168  0.08460542     2.64700
O213        O  0.32635646  0.49731538  0.07875171    -0.98900
O214        O  0.28165900  0.99760971  0.13860992    -0.80900
O215        O  0.26572385  0.46730183  0.04064798    -0.84300
O216        O  0.29315566  0.02375443  0.04117446    -2.19000
O217        O  0.21781915  0.04403911  0.48062044    -0.67700
O218        O  0.25340169  0.07811207  0.00934112    -0.52300
C219        C  0.23570536  0.07081955  0.48857404     0.71100
O220        O  0.16869881  0.44695228  0.10051093    -0.60600
O221        O  0.17240631  0.41206847  0.07320408    -0.52600
C222        C  0.16061762  0.42017023  0.09326223     0.72900
O223        O  0.21906213  0.04581537  0.10294979    -0.72000
O224        O  0.25497387  0.07954988  0.07395054    -0.50700
C225        C  0.23670209  0.07227356  0.09511814     0.74300
O226        O  0.16684238  0.44566485  0.48018870    -0.67300
O227        O  0.17076054  0.41128420  0.00898842    -0.54500
C228        C  0.15858458  0.41916287  0.48755887     0.72600
Zr229      Zr  0.20252763  0.49463416  0.99809460     2.77500
O230        O  0.15722974  0.49539564  0.00598563    -0.98100
O231        O  0.19649489  0.49409935  0.44445019    -0.78900
Zr232      Zr  0.20500531  0.49633139  0.08574336     2.70100
O233        O  0.15954694  0.49781363  0.08620065    -0.80100
O234        O  0.20731187  0.49607486  0.13937056    -0.99200
Zr235      Zr  0.21356984  0.43905090  0.04099726     2.21500
Zr236      Zr  0.26874615  0.05164485  0.04149311     2.11100
O237        O  0.21651135  0.02361856  0.04195901    -2.47900
O238        O  0.18915996  0.46692249  0.04178667    -0.79900
O239        O  0.25439262  0.02347169  0.49740651    -0.72100
O240        O  0.22843381  0.46794362  0.08560080    -2.33100
O241        O  0.22552374  0.46679859  0.49648574    -2.29300
O242        O  0.25591387  0.02468534  0.08584005    -0.73900
H243        H  0.31418474  0.03646698  0.04108244     0.78100
H244        H  0.22256876  0.45573746  0.10272302     0.79200
H245        H  0.20804153  0.03622109  0.04210540     0.81400
H246        H  0.21894045  0.45400709  0.47919963     0.79000
H247        H  0.27497455  0.50728447  0.14553543     0.42100
H248        H  0.22502284  0.00821295  0.14530876     0.41000
H249        H  0.14789489  0.48499912  0.06933630     0.40700
H250        H  0.15995820  0.01317472  0.00196557     0.38600
H251        H  0.21622383  0.99678328  0.43770323     0.41800
H252        H  0.25826525  0.47878744  0.43681210     0.36600
H253        H  0.33635185  0.51027905  0.01218193     0.42700
H254        H  0.33915383  0.01441644  0.07446395     0.39100
H255        H  0.14754122  0.49123309  0.48344708     0.44000
H256        H  0.29107376  0.48636735  0.43801756     0.42700
H257        H  0.33137140  0.49383154  0.09878880     0.42900
H258        H  0.19383534  0.50292916  0.14602060     0.43200
C259        C  0.21832248  0.10528575  0.39515259    -0.03600
C260        C  0.21640740  0.08054771  0.38064552    -0.06200
C261        C  0.21448644  0.07790386  0.34995358    -0.21200
C262        C  0.21420828  0.09972926  0.33287759     0.24500
C263        C  0.21519102  0.12411764  0.34733226    -0.18800
C264        C  0.21713813  0.12678453  0.37815568    -0.08800
C265        C  0.21520872  0.09705981  0.30027015    -0.19000
C266        C  0.20828661  0.11195189  0.28097996    -0.23800
C267        C  0.21128416  0.11071537  0.24837096     0.26500
C268        C  0.20792520  0.13081769  0.23117438    -0.20600
C269        C  0.21176090  0.13156869  0.20068837    -0.10300
C270        C  0.21889014  0.11204634  0.18654614    -0.10800
C271        C  0.22152033  0.09139886  0.20354292    -0.03700
C272        C  0.21773988  0.09066612  0.23404036    -0.18800
H273        H  0.21718838  0.06347817  0.39292219     0.10200
H274        H  0.21381155  0.05892679  0.33945932     0.10300
H275        H  0.21568862  0.14179484  0.33509117     0.10000
H276        H  0.21865023  0.14615818  0.38858395     0.11100
H277        H  0.22238925  0.08224310  0.29228018     0.11200
H278        H  0.20057490  0.12629179  0.28928586     0.13100
H279        H  0.20276362  0.14638748  0.24142780     0.09600
H280        H  0.20938749  0.14766998  0.18825933     0.11700
H281        H  0.22695392  0.07600603  0.19336358     0.08300
H282        H  0.21995992  0.07426906  0.24590105     0.11000
C283        C  0.37989721  0.26836958  0.18773559    -0.03600
C284        C  0.40610346  0.27431002  0.20211771    -0.06200
C285        C  0.40942943  0.27891830  0.23265862    -0.21200
C286        C  0.38661408  0.27742654  0.24966686     0.24500
C287        C  0.36079324  0.27267217  0.23516474    -0.18800
C288        C  0.35746627  0.26806969  0.20458293    -0.08800
C289        C  0.39048548  0.28009397  0.28233703    -0.19000
C290        C  0.36797515  0.27021997  0.30107226    -0.23800
C291        C  0.37129760  0.26998821  0.33356470     0.26500
C292        C  0.34927876  0.26943955  0.35111222    -0.20600
C293        C  0.34994645  0.26676647  0.38157531    -0.10300
C294        C  0.37254138  0.26420080  0.39534185    -0.10800
C295        C  0.39489862  0.26508922  0.37784041    -0.03700
C296        C  0.39430354  0.26795524  0.34721648    -0.18800
H297        H  0.42398903  0.27500350  0.18985673     0.10200
H298        H  0.42966867  0.28287849  0.24313651     0.10300
H299        H  0.34302045  0.27243635  0.24712697     0.10000
H300        H  0.33710288  0.26384899  0.19422309     0.11100
H301        H  0.41261338  0.28914238  0.29115211     0.11200
H302        H  0.34579468  0.26129093  0.29257462     0.13100
H303        H  0.33122550  0.27074400  0.34114450     0.09600
H304        H  0.33231134  0.26614336  0.39424175     0.11700
H305        H  0.41248751  0.26291828  0.38767842     0.08300
H306        H  0.41123764  0.26744587  0.33431623     0.11000
C307        C  0.37339026  0.10371970  0.39487922    -0.03600
C308        C  0.34982780  0.07997702  0.37980430    -0.06200
C309        C  0.35049289  0.07624602  0.34931226    -0.21200
C310        C  0.37460333  0.09615683  0.33301913     0.24500
C311        C  0.39871638  0.11932667  0.34819732    -0.18800
C312        C  0.39800876  0.12313815  0.37874404    -0.08800
C313        C  0.37331968  0.09216490  0.30034209    -0.19000
C314        C  0.38925436  0.11415805  0.28188569    -0.23800
C315        C  0.38609632  0.11166042  0.24915557     0.26500
C316        C  0.40829376  0.13369731  0.23252525    -0.20600
C317        C  0.40538760  0.13405479  0.20193928    -0.10300
C318        C  0.38003671  0.11239424  0.18711110    -0.10800
C319        C  0.35802409  0.08987995  0.20362754    -0.03700
C320        C  0.36094358  0.08952056  0.23431021    -0.18800
H321        H  0.33051745  0.06447571  0.39144966     0.10200
H322        H  0.33172839  0.05807770  0.33830411     0.10300
H323        H  0.41823734  0.13456465  0.33674697     0.10000
H324        H  0.41670183  0.14143282  0.38966389     0.11100
H325        H  0.35750127  0.07069747  0.29138895     0.11200
H326        H  0.40493994  0.13561316  0.29095572     0.13100
H327        H  0.42783501  0.15107844  0.24332372     0.09600
H328        H  0.42284710  0.15171996  0.19001528     0.11700
H329        H  0.33813284  0.07292603  0.19297209     0.08300
H330        H  0.34294114  0.07249005  0.24619456     0.11000
C331        C  0.10099005  0.21968595  0.39558336    -0.03600
C332        C  0.07468313  0.21383055  0.38149593    -0.06200
C333        C  0.07178470  0.21152817  0.35075303    -0.21200
C334        C  0.09497172  0.21488319  0.33304178     0.24500
C335        C  0.12116758  0.22005830  0.34708748    -0.18800
C336        C  0.12406652  0.22233649  0.37798185    -0.08800
C337        C  0.09133296  0.21492966  0.30027618    -0.19000
C338        C  0.10870858  0.21196837  0.28037540    -0.23800
C339        C  0.10654980  0.21431659  0.24761768     0.26500
C340        C  0.12799652  0.21355287  0.22999088    -0.20600
C341        C  0.12817893  0.21714404  0.19947922    -0.10300
C342        C  0.10680022  0.22155470  0.18551199    -0.10800
C343        C  0.08481586  0.22156788  0.20291265    -0.03700
C344        C  0.08463990  0.21800136  0.23353129    -0.18800
H345        H  0.05637123  0.21157966  0.39419249     0.10200
H346        H  0.05138078  0.20760401  0.34071620     0.10300
H347        H  0.13988949  0.22344671  0.33447357     0.10000
H348        H  0.14473613  0.22708266  0.38800614     0.11100
H349        H  0.07346948  0.21784253  0.29262891     0.11200
H350        H  0.12594486  0.20813421  0.28830189     0.13100
H351        H  0.14510554  0.21065095  0.23994075     0.09600
H352        H  0.14543769  0.21686765  0.18690765     0.11700
H353        H  0.06795527  0.22484459  0.19296329     0.08300
H354        H  0.06736600  0.21844142  0.24575835     0.11000
C355        C  0.11069875  0.38312475  0.18673748    -0.03600
C356        C  0.13559219  0.40496091  0.20204670    -0.06200
C357        C  0.13645236  0.40657747  0.23281927    -0.21200
C358        C  0.11238486  0.38672108  0.24921212     0.24500
C359        C  0.08731591  0.36489624  0.23397320    -0.18800
C360        C  0.08651272  0.36316395  0.20308080    -0.08800
C361        C  0.11510731  0.38900083  0.28199777    -0.19000
C362        C  0.09223530  0.37696991  0.30040840    -0.23800
C363        C  0.09554550  0.37879707  0.33317250     0.26500
C364        C  0.07255577  0.35778778  0.34992378    -0.20600
C365        C  0.07524111  0.35768271  0.38061399    -0.10300
C366        C  0.10096921  0.37880411  0.39539423    -0.10800
C367        C  0.12345318  0.40069897  0.37876683    -0.03700
C368        C  0.12077956  0.40076649  0.34804841    -0.18800
H369        H  0.15476825  0.42057355  0.19030278     0.10200
H370        H  0.15614068  0.42343499  0.24389292     0.10300
H371        H  0.06856441  0.34860309  0.24564383     0.10000
H372        H  0.06709063  0.34589832  0.19203878     0.11100
H373        H  0.13718516  0.40125937  0.29113496     0.11200
H374        H  0.07012713  0.36448163  0.29139826     0.13100
H375        H  0.05268031  0.34089907  0.33915529     0.09600
H376        H  0.05730032  0.34067748  0.39268212     0.11700
H377        H  0.14342565  0.41753368  0.38940376     0.08300
H378        H  0.13854352  0.41813125  0.33621536     0.11000
C379        C  0.26487677  0.38560828  0.18754164    -0.03600
C380        C  0.26676496  0.41020633  0.20238299    -0.06200
C381        C  0.26966638  0.41305139  0.23310855    -0.21200
C382        C  0.27058012  0.39137845  0.24992964     0.24500
C383        C  0.26951833  0.36711015  0.23508941    -0.18800
C384        C  0.26660086  0.36424889  0.20429259    -0.08800
C385        C  0.27268848  0.39515104  0.28270501    -0.19000
C386        C  0.26469482  0.37284310  0.30140751    -0.23800
C387        C  0.26467139  0.37574065  0.33419692     0.26500
C388        C  0.26127323  0.35208674  0.35093554    -0.20600
C389        C  0.25944575  0.35269517  0.38159775    -0.10300
C390        C  0.26073952  0.37696542  0.39647029    -0.10800
C391        C  0.26440976  0.40086362  0.37985887    -0.03700
C392        C  0.26634628  0.40029834  0.34907293    -0.18800
H393        H  0.26561196  0.42718919  0.19032108     0.10200
H394        H  0.27067302  0.43208592  0.24383708     0.10300
H395        H  0.27115012  0.35034533  0.24697791     0.10000
H396        H  0.26549590  0.34515137  0.19364322     0.11100
H397        H  0.28005864  0.41706915  0.29143821     0.11200
H398        H  0.25711082  0.35094032  0.29247104     0.13100
H399        H  0.25970406  0.33280305  0.34019622     0.09600
H400        H  0.25640525  0.33376954  0.39356441     0.11700
H401        H  0.26531285  0.41984373  0.39057731     0.08300
H402        H  0.26829440  0.41880185  0.33722366     0.11000
C403        C  0.25703134  0.38066851  0.65496683     0.79900
N404        N  0.25461639  0.35670569  0.64043133    -0.78400
C405        C  0.24857364  0.35273042  0.61096186     0.82300
N406        N  0.24492511  0.37283045  0.59590635    -0.78400
C407        C  0.24825236  0.39729476  0.60999665     0.82400
N408        N  0.25433798  0.40111185  0.63941977    -0.80100
C409        C  0.25945432  0.37708331  0.92842646     0.79900
N410        N  0.25565229  0.39795247  0.94254172    -0.78400
C411        C  0.24813516  0.39513869  0.97145390     0.82300
N412        N  0.24450164  0.37141030  0.98634115    -0.78400
C413        C  0.24918215  0.35100496  0.97274394     0.82400
N414        N  0.25669486  0.35396279  0.94391195    -0.80100
C415        C  0.10479624  0.37585282  0.92864800     0.79900
N416        N  0.08456000  0.35268127  0.94396092    -0.78400
C417        C  0.08879365  0.35009960  0.97305260     0.82300
N418        N  0.11344400  0.37095541  0.98714451    -0.78400
C419        C  0.13339918  0.39476706  0.97239495     0.82400
N420        N  0.12900189  0.39718846  0.94319428    -0.80100
C421        C  0.11056649  0.38061884  0.65456885     0.79900
N422        N  0.08909467  0.35674793  0.63975027    -0.78400
C423        C  0.09120373  0.35308700  0.61029320     0.82300
N424        N  0.11478055  0.37335501  0.59553775    -0.78400
C425        C  0.13575706  0.39771610  0.60990292     0.82400
N426        N  0.13356081  0.40127732  0.63930476    -0.80100
C427        C  0.11045774  0.23069383  0.65331070     0.79900
N428        N  0.08891812  0.23315056  0.63912265    -0.78400
C429        C  0.09102206  0.23915342  0.60983589     0.82300
N430        N  0.11469691  0.24264820  0.59473597    -0.78400
C431        C  0.13566003  0.23920255  0.60854281     0.82400
N432        N  0.13341407  0.23322174  0.63763355    -0.80100
C433        C  0.10620587  0.22768945  0.92789798     0.79900
N434        N  0.08525473  0.22970997  0.94337719    -0.78400
C435        C  0.08862613  0.23579110  0.97279663     0.82300
N436        N  0.11317070  0.23985328  0.98703644    -0.78400
C437        C  0.13381292  0.23685877  0.97209453     0.82400
N438        N  0.13027683  0.23076227  0.94255421    -0.80100
C439        C  0.37094443  0.10933639  0.92707503     0.79900
N440        N  0.39250995  0.13315720  0.94189514    -0.78400
C441        C  0.39000735  0.13740536  0.97112500     0.82300
N442        N  0.36581367  0.11767931  0.98563125    -0.78400
C443        C  0.34463541  0.09336124  0.97125528     0.82400
N444        N  0.34735449  0.08926241  0.94208952    -0.80100
C445        C  0.37792887  0.11473402  0.65392930     0.79900
N446        N  0.39799309  0.13822253  0.63884999    -0.78400
C447        C  0.39333011  0.14126638  0.60997939     0.82300
N448        N  0.36851799  0.12056288  0.59597957    -0.78400
C449        C  0.34880745  0.09652192  0.61059650     0.82400
N450        N  0.35358248  0.09367396  0.63948635    -0.80100
C451        C  0.37757266  0.26425131  0.65458274     0.79900
N452        N  0.35313603  0.26073236  0.64038273    -0.78400
C453        C  0.34837224  0.25292389  0.61128001     0.82300
N454        N  0.36823178  0.24870176  0.59623696    -0.78400
C455        C  0.39309832  0.25302375  0.60999475     0.82400
N456        N  0.39768317  0.26084818  0.63904621    -0.80100
C457        C  0.37173160  0.25903021  0.92743064     0.79900
N458        N  0.39289335  0.25589696  0.94155488    -0.78400
C459        C  0.39041259  0.24931394  0.97070676     0.82300
N460        N  0.36676695  0.24596337  0.98575740    -0.78400
C461        C  0.34607423  0.24993522  0.97209440     0.82400
N462        N  0.34872492  0.25655156  0.94309844    -0.80100
C463        C  0.22284545  0.10880361  0.92686500     0.79900
N464        N  0.22632930  0.13331775  0.94119802    -0.78400
C465        C  0.23340345  0.13777363  0.97047396     0.82300
N466        N  0.23695494  0.11759755  0.98546896    -0.78400
C467        C  0.23255916  0.09264149  0.97159946     0.82400
N468        N  0.22544773  0.08833459  0.94242788    -0.80100
C469        C  0.22380827  0.11395443  0.65423852     0.79900
N470        N  0.22733860  0.09310918  0.63981957    -0.78400
C471        C  0.23547052  0.09645729  0.61113950     0.82300
N472        N  0.23988561  0.12069271  0.59669651    -0.78400
C473        C  0.23557942  0.14119198  0.61067340     0.82400
N474        N  0.22748608  0.13769345  0.63930896    -0.80100
O475        O  0.26528900  0.31914537  0.60313590    -0.75600
O476        O  0.22792803  0.31557216  0.57410961    -0.54600
C477        C  0.24707210  0.32744066  0.59513965     0.78100
O478        O  0.31341989  0.26707731  0.98160641    -0.60200
O479        O  0.31171770  0.23156389  0.51020475    -0.53300
C480        C  0.32186459  0.24888810  0.98884523     0.70100
O481        O  0.26605448  0.31825881  0.98251403    -0.74800
O482        O  0.22818624  0.31590397  0.51036408    -0.55400
C483        C  0.24769217  0.32666567  0.98940731     0.76100
O484        O  0.31401240  0.26861278  0.60395842    -0.60000
O485        O  0.31161032  0.23199662  0.57418516    -0.53100
C486        C  0.32286754  0.25084402  0.59562888     0.72700
Zr487      Zr  0.27843835  0.28255365  0.58722424     2.54700
O488        O  0.32506529  0.32831007  0.58871051    -0.80500
O489        O  0.27538822  0.27959222  0.64075983    -0.93900
Zr490      Zr  0.27994210  0.28358992  0.49938603     2.64700
O491        O  0.32623281  0.32927826  0.50634789    -0.98900
O492        O  0.28202039  0.28560599  0.94570704    -0.80900
O493        O  0.26564587  0.29793031  0.54325059    -0.84300
O494        O  0.29410711  0.26965494  0.54328511    -2.19000
O495        O  0.21927952  0.17450831  0.60180278    -0.67700
O496        O  0.25565024  0.17616826  0.57334234    -0.52300
C497        C  0.23716573  0.16567310  0.59432028     0.71100
O498        O  0.16728892  0.22042434  0.98051206    -0.60600
O499        O  0.17091697  0.25790942  0.50848273    -0.52600
C500        C  0.15915961  0.23892747  0.98807488     0.72900
O501        O  0.21813507  0.17248770  0.97811751    -0.72000
O502        O  0.25501554  0.17527281  0.50833291    -0.50700
C503        C  0.23557912  0.16335360  0.98638743     0.74300
O504        O  0.16837170  0.22224903  0.59945060    -0.67300
O505        O  0.17136344  0.25952932  0.57184088    -0.54500
C506        C  0.15998728  0.24046413  0.59211792     0.72600
Zr507      Zr  0.20336901  0.20763239  0.58329511     2.77500
O508        O  0.15793020  0.16125521  0.57574872    -0.98100
O509        O  0.19769079  0.20363554  0.63649965    -0.78900
Zr510      Zr  0.20471357  0.20823780  0.49578143     2.70100
O511        O  0.15924684  0.16148795  0.49783867    -0.80100
O512        O  0.20337457  0.20963426  0.94231178    -0.99200
Zr513      Zr  0.21343869  0.27369825  0.54103155     2.21500
Zr514      Zr  0.26980183  0.21736502  0.54136572     2.11100
O515        O  0.21759623  0.19300234  0.53963273    -2.47900
O516        O  0.18909125  0.22150975  0.53945005    -0.79900
O517        O  0.25514625  0.23072606  0.58578785    -0.72100
O518        O  0.22773510  0.25964472  0.99704943    -2.33100
O519        O  0.22669484  0.25943021  0.58561415    -2.29300
O520        O  0.25590197  0.23076893  0.99678699    -0.73900
H521        H  0.31512350  0.27794913  0.54392299     0.78100
H522        H  0.22161815  0.26594400  0.97987181     0.79200
H523        H  0.20926959  0.17195445  0.53913256     0.81400
H524        H  0.22020508  0.26567061  0.60269538     0.79000
H525        H  0.27530768  0.26528250  0.93866922     0.42100
H526        H  0.22207692  0.21115351  0.93618924     0.41000
H527        H  0.14609264  0.16573528  0.50979126     0.40700
H528        H  0.16416139  0.14660185  0.57205719     0.38600
H529        H  0.21454878  0.22194147  0.64457375     0.41800
H530        H  0.25634874  0.27803819  0.64547743     0.36600
H531        H  0.32357014  0.33971209  0.57232710     0.42700
H532        H  0.33939000  0.32370222  0.51644461     0.39100
H533        H  0.14902620  0.15655557  0.59548544     0.44000
H534        H  0.29024446  0.29939721  0.64811425     0.42700
H535        H  0.33006666  0.33651073  0.98447900     0.42900
H536        H  0.18811441  0.18966387  0.93580064     0.41700
O537        O  0.03929297  0.31716058  0.98183595    -0.75600
O538        O  0.07433072  0.31482398  0.50863841    -0.54600
C539        C  0.06599744  0.32560512  0.98930598     0.78100
O540        O  0.44264246  0.26922248  0.60100249    -0.60200
O541        O  0.40776283  0.23213423  0.57200674    -0.53300
C542        C  0.41587465  0.25118885  0.59326989     0.70100
O543        O  0.04115135  0.32017643  0.60152840    -0.74800
O544        O  0.07485173  0.31613985  0.57338375    -0.55400
C545        C  0.06757798  0.32810964  0.59410520     0.76100
O546        O  0.44051295  0.26560597  0.97882373    -0.60000
O547        O  0.40705079  0.23061519  0.50777406    -0.53100
C548        C  0.41405112  0.24792280  0.98664372     0.72700
Zr549      Zr  0.49035051  0.28127924  0.49582944     2.54700
O550        O  0.48849953  0.32656959  0.49765547    -0.80500
O551        O  0.48893575  0.28041599  0.94333154    -0.93900
Zr552      Zr  0.49175626  0.28404486  0.58359668     2.64700
O553        O  0.49122370  0.32982712  0.57897841    -0.98900
O554        O  0.49193714  0.28643560  0.63723397    -0.80900
O555        O  0.01978824  0.29852574  0.54075145    -0.84300
O556        O  0.46268218  0.26919700  0.53966815    -2.19000
O557        O  0.44036913  0.17077318  0.97991723    -0.67700
O558        O  0.40675886  0.17487728  0.50748589    -0.52300
C559        C  0.41380956  0.16247219  0.98738763     0.71100
O560        O  0.04088525  0.22285545  0.60171091    -0.60600
O561        O  0.07475649  0.25962402  0.57356178    -0.52600
C562        C  0.06739808  0.24078017  0.59414070     0.72900
O563        O  0.44276608  0.17467072  0.60129535    -0.72000
O564        O  0.40783853  0.17614175  0.57245881    -0.50700
C565        C  0.41600880  0.16570591  0.59357869     0.74300
O566        O  0.03879428  0.21876906  0.98172236    -0.67300
O567        O  0.07358187  0.25692232  0.50972802    -0.54500
C568        C  0.06553200  0.23741817  0.98909712     0.72600
Zr569      Zr  0.49022475  0.20596542  0.49698512     2.77500
O570        O  0.48962704  0.16003212  0.50497550    -0.98100
O571        O  0.49115419  0.20242290  0.94470441    -0.78900
Zr572      Zr  0.49189885  0.20897362  0.58439660     2.70100
O573        O  0.49160343  0.16261140  0.58090974    -0.80100
O574        O  0.49400358  0.20995714  0.63810163    -0.99200
Zr575      Zr  0.04726839  0.27370252  0.54105040     2.21500
Zr576      Zr  0.43476722  0.21697445  0.54010316     2.11100
O577        O  0.46251609  0.19246352  0.54069349    -2.47900
O578        O  0.01888491  0.22157272  0.54160969    -0.79900
O579        O  0.46160227  0.22877366  0.99674222    -0.72100
O580        O  0.01992958  0.26140976  0.58546326    -2.33100
O581        O  0.01812394  0.25763285  0.99684250    -2.29300
O582        O  0.46331307  0.23222819  0.58454459    -0.73900
H583        H  0.44995354  0.27745296  0.53942336     0.78100
H584        H  0.03265996  0.26800323  0.60267758     0.79200
H585        H  0.44983349  0.17142427  0.54084726     0.81400
H586        H  0.03043026  0.26341587  0.97978364     0.79000
H587        H  0.99146200  0.27369902  0.64554692     0.42100
H588        H  0.48097692  0.21754018  0.64422022     0.41000
H589        H  0.00092759  0.16333970  0.56697575     0.40700
H590        H  0.48941273  0.15226016  0.48489837     0.38600
H591        H  0.49928832  0.22291782  0.93835356     0.41800
H592        H  0.00612139  0.27767602  0.93768619     0.36600
H593        H  0.99210461  0.33598069  0.48298666     0.42700
H594        H  0.47523011  0.32536372  0.56460693     0.39100
H595        H  0.50872057  0.16472287  0.01255461     0.44000
H596        H  0.49533748  0.30093869  0.93818960     0.42700
H597        H  0.48372950  0.33244951  0.59806780     0.42900
H598        H  0.48349672  0.18910730  0.64373139     0.43200
O599        O  0.26427393  0.44518351  0.97992831    -0.75600
O600        O  0.22674042  0.41178211  0.50859183    -0.54600
C601        C  0.24625930  0.41867216  0.98731237     0.78100
O602        O  0.31499463  0.04645001  0.60241024    -0.60200
O603        O  0.31179857  0.08018875  0.57397100    -0.53300
C604        C  0.32343806  0.07292201  0.59476972     0.70100
O605        O  0.26513264  0.44707612  0.60102939    -0.74800
O606        O  0.22742964  0.41232358  0.57252160    -0.55400
C607        C  0.24677080  0.42029051  0.59339490     0.76100
O608        O  0.31104540  0.04369522  0.97954762    -0.60000
O609        O  0.31056849  0.07879107  0.50918407    -0.53100
C610        C  0.32007857  0.07049904  0.98756193     0.72700
Zr611      Zr  0.27729716  0.49509374  0.49682764     2.54700
O612        O  0.32349927  0.49524050  0.50039744    -0.80500
O613        O  0.27587745  0.99255254  0.94339175    -0.93900
Zr614      Zr  0.27908103  0.49639638  0.58470543     2.64700
O615        O  0.32576189  0.49743673  0.58269478    -0.98900
O616        O  0.28380752  0.99686211  0.63845547    -0.80900
O617        O  0.26472554  0.46729415  0.54053664    -0.84300
O618        O  0.29393164  0.02433017  0.54121439    -2.19000
O619        O  0.21628540  0.04298608  0.98055734    -0.67700
O620        O  0.25455769  0.07898881  0.50988522    -0.52300
C621        C  0.23430690  0.06984581  0.98821606     0.71100
O622        O  0.16867009  0.44743469  0.60148500    -0.60600
O623        O  0.17100216  0.41270558  0.57258918    -0.52600
C624        C  0.16004336  0.42070137  0.59358244     0.72900
O625        O  0.21995463  0.04656426  0.60338875    -0.72000
O626        O  0.25542268  0.08019790  0.57392445    -0.50700
C627        C  0.23728758  0.07297754  0.59523457     0.74300
O628        O  0.16692584  0.44493684  0.98091825    -0.67300
O629        O  0.17031569  0.41186454  0.50828276    -0.54500
C630        C  0.15874685  0.41846985  0.98838904     0.72600
Zr631      Zr  0.20214173  0.49525905  0.49782923     2.77500
O632        O  0.15642007  0.49564826  0.50351908    -0.98100
O633        O  0.19741448  0.49378993  0.94467694    -0.78900
Zr634      Zr  0.20412716  0.49665702  0.58560991     2.70100
O635        O  0.15821654  0.49722400  0.58381560    -0.80100
O636        O  0.20411080  0.49518596  0.63924357    -0.99200
Zr637      Zr  0.21251959  0.43952905  0.54076395     2.21500
Zr638      Zr  0.26956433  0.05224499  0.54183364     2.11100
O639        O  0.21737550  0.02441057  0.54229022    -2.47900
O640        O  0.18817776  0.46744818  0.54149213    -0.79900
O641        O  0.25372077  0.02282584  0.99710072    -0.72100
O642        O  0.22736702  0.46809476  0.58544672    -2.33100
O643        O  0.22596874  0.46617862  0.99670810    -2.29300
O644        O  0.25667578  0.02540799  0.58635878    -0.73900
H645        H  0.31496803  0.03693945  0.54108785     0.78100
H646        H  0.22141409  0.45581451  0.60250972     0.79200
H647        H  0.20904245  0.03712071  0.54246153     0.81400
H648        H  0.21930412  0.45330633  0.97948103     0.79000
H649        H  0.27131906  0.50850889  0.64434147     0.42100
H650        H  0.22159056  0.01137986  0.64662015     0.41000
H651        H  0.14363131  0.47758455  0.57582569     0.40700
H652        H  0.15076702  0.99749076  0.48594658     0.38600
H653        H  0.21005180  0.98555379  0.93767313     0.41800
H654        H  0.25637135  0.47714785  0.93753537     0.36600
H655        H  0.31965150  0.47944059  0.51428604     0.42700
H656        H  0.33009468  0.99252487  0.60042642     0.39100
H657        H  0.14533868  0.48620755  0.98785377     0.44000
H658        H  0.29020456  0.48904899  0.93673078     0.42700
H659        H  0.32054893  0.47699899  0.57769001     0.42900
H660        H  0.19082338  0.50245698  0.64535780     0.43200
C661        C  0.21803160  0.10503493  0.89434978    -0.03600
C662        C  0.21563604  0.08010090  0.87978844    -0.06200
C663        C  0.21393417  0.07758651  0.84904980    -0.21200
C664        C  0.21417852  0.09966344  0.83197646     0.24500
C665        C  0.21596592  0.12442008  0.84644898    -0.18800
C666        C  0.21779292  0.12700767  0.87729773    -0.08800
C667        C  0.21447384  0.09675160  0.79930118    -0.19000
C668        C  0.20630276  0.11096158  0.78042862    -0.23800
C669        C  0.20877242  0.10970439  0.74780790     0.26500
C670        C  0.20963371  0.13240357  0.73129146    -0.20600
C671        C  0.21377937  0.13336207  0.70087699    -0.10300
C672        C  0.21696505  0.11145351  0.68610344    -0.10800
C673        C  0.21479605  0.08795879  0.70238187    -0.03700
C674        C  0.21065819  0.08701572  0.73288338    -0.18800
H675        H  0.21577335  0.06271457  0.89208237     0.10200
H676        H  0.21275432  0.05838751  0.83852421     0.10300
H677        H  0.21705616  0.14235026  0.83415497     0.10000
H678        H  0.21984127  0.14662026  0.88771292     0.11100
H679        H  0.22212099  0.08244936  0.79074574     0.11200
H680        H  0.19860726  0.12519869  0.78909609     0.13100
H681        H  0.20787560  0.14995944  0.74208998     0.09600
H682        H  0.21506110  0.15166528  0.68906923     0.11700
H683        H  0.21675527  0.07049268  0.69166793     0.08300
H684        H  0.20897229  0.06848470  0.74449494     0.11000
C685        C  0.38189118  0.27079194  0.68683619    -0.03600
C686        C  0.40775807  0.27573545  0.70123739    -0.06200
C687        C  0.41093494  0.27969887  0.73188854    -0.21200
C688        C  0.38831668  0.27857871  0.74901794     0.24500
C689        C  0.36292477  0.27492782  0.73447079    -0.18800
C690        C  0.35975670  0.27098943  0.70379472    -0.08800
C691        C  0.39197268  0.28057393  0.78181421    -0.19000
C692        C  0.36951084  0.27164193  0.80060584    -0.23800
C693        C  0.37247314  0.27092297  0.83322837     0.26500
C694        C  0.35053166  0.27066077  0.85075096    -0.20600
C695        C  0.35082258  0.26758037  0.88125089    -0.10300
C696        C  0.37298072  0.26436134  0.89516759    -0.10800
C697        C  0.39526904  0.26500847  0.87769829    -0.03700
C698        C  0.39503403  0.26823421  0.84705208    -0.18800
H699        H  0.42543034  0.27603637  0.68891393     0.10200
H700        H  0.43088830  0.28285222  0.74234426     0.10300
H701        H  0.34532777  0.27500761  0.74646719     0.10000
H702        H  0.33967605  0.26758552  0.69344740     0.11100
H703        H  0.41391156  0.28847302  0.79065429     0.11200
H704        H  0.34754590  0.26389799  0.79203413     0.13100
H705        H  0.33280438  0.27249857  0.84072900     0.09600
H706        H  0.33325409  0.26719566  0.89383700     0.11700
H707        H  0.41254854  0.26236301  0.88758518     0.08300
H708        H  0.41192673  0.26752125  0.83427352     0.11000
C709        C  0.37249587  0.10569951  0.89472207    -0.03600
C710        C  0.35044314  0.08078166  0.87962042    -0.06200
C711        C  0.35082357  0.07813590  0.84896282    -0.21200
C712        C  0.37317279  0.10026171  0.83249360     0.24500
C713        C  0.39562989  0.12499676  0.84768797    -0.18800
C714        C  0.39525353  0.12761232  0.87840177    -0.08800
C715        C  0.37160277  0.09647584  0.79973534    -0.19000
C716        C  0.38998484  0.11689364  0.78096976    -0.23800
C717        C  0.38698136  0.11361166  0.74825660     0.26500
C718        C  0.41073893  0.13312876  0.73125556    -0.20600
C719        C  0.40820568  0.13285150  0.70055666    -0.10300
C720        C  0.38176642  0.11296630  0.68608518    -0.10800
C721        C  0.35828882  0.09271313  0.70295789    -0.03700
C722        C  0.36073999  0.09313159  0.73367938    -0.18800
H723        H  0.33258257  0.06339141  0.89141590     0.10200
H724        H  0.33327275  0.05879458  0.83802578     0.10300
H725        H  0.41356785  0.14257590  0.83633121     0.10000
H726        H  0.41263187  0.14708755  0.88929548     0.11100
H727        H  0.35411168  0.07578149  0.79089172     0.11200
H728        H  0.40810888  0.13728193  0.78949382     0.13100
H729        H  0.43120186  0.14913293  0.74182454     0.09600
H730        H  0.42678878  0.14867649  0.68824071     0.11700
H731        H  0.33753677  0.07722304  0.69254391     0.08300
H732        H  0.34157122  0.07811824  0.74570079     0.11000
C733        C  0.10319789  0.22356221  0.89522679    -0.03600
C734        C  0.07796969  0.22006948  0.88061194    -0.06200
C735        C  0.07560216  0.21803497  0.84985736    -0.21200
C736        C  0.09837057  0.21958115  0.83270569     0.24500
C737        C  0.12339980  0.22232353  0.84727396    -0.18800
C738        C  0.12576648  0.22433871  0.87816083    -0.08800
C739        C  0.09465045  0.21788651  0.79992022    -0.19000
C740        C  0.11678084  0.22610782  0.78083129    -0.23800
C741        C  0.11307449  0.22513806  0.74811530     0.26500
C742        C  0.13510700  0.22549223  0.73065638    -0.20600
C743        C  0.13364556  0.22623945  0.69995656    -0.10300
C744        C  0.11019718  0.22701987  0.68577214    -0.10800
C745        C  0.08781597  0.22618099  0.70315354    -0.03700
C746        C  0.08923490  0.22531952  0.73398082    -0.18800
H747        H  0.06004085  0.21924364  0.89290300     0.10200
H748        H  0.05596574  0.21566948  0.83938635     0.10300
H749        H  0.14115936  0.22271910  0.83513767     0.10000
H750        H  0.14544254  0.22682796  0.88862677     0.11100
H751        H  0.07262412  0.20995694  0.79136286     0.11200
H752        H  0.13882457  0.23390578  0.78922127     0.13100
H753        H  0.15375875  0.22547178  0.74084666     0.09600
H754        H  0.15135640  0.22687461  0.68741123     0.11700
H755        H  0.06955132  0.22694743  0.69301225     0.08300
H756        H  0.07211146  0.22581063  0.74651426     0.11000
C757        C  0.10962460  0.38375989  0.68713927    -0.03600
C758        C  0.13242071  0.40809752  0.70225958    -0.06200
C759        C  0.13263994  0.41046796  0.73298869    -0.21200
C760        C  0.11009383  0.38871042  0.74958280     0.24500
C761        C  0.08700121  0.36442299  0.73447232    -0.18800
C762        C  0.08678900  0.36204286  0.70362440    -0.08800
C763        C  0.11277160  0.39169153  0.78243130    -0.19000
C764        C  0.09107718  0.37541588  0.80117444    -0.23800
C765        C  0.09483629  0.37713183  0.83397332     0.26500
C766        C  0.07390812  0.35385669  0.85049954    -0.20600
C767        C  0.07686123  0.35373917  0.88115399    -0.10300
C768        C  0.10085149  0.37703315  0.89624429    -0.10800
C769        C  0.12142625  0.40076075  0.87985052    -0.03700
C770        C  0.11843033  0.40091106  0.84913297    -0.18800
H771        H  0.15045674  0.42523497  0.69041193     0.10200
H772        H  0.15079427  0.42933423  0.74389125     0.10300
H773        H  0.06944555  0.34673828  0.74616486     0.10000
H774        H  0.06897734  0.34287479  0.69275875     0.11100
H775        H  0.13409611  0.40779069  0.79130819     0.11200
H776        H  0.06974547  0.35921831  0.79238870     0.13100
H777        H  0.05539091  0.33534559  0.83958288     0.09600
H778        H  0.06048546  0.33507758  0.89294469     0.11700
H779        H  0.14002951  0.41919711  0.89071410     0.08300
H780        H  0.13462394  0.41981664  0.83761098     0.11000
C781        C  0.26157007  0.38412599  0.68754909    -0.03600
C782        C  0.26445543  0.40916391  0.70231338    -0.06200
C783        C  0.26672438  0.41169763  0.73306169    -0.21200
C784        C  0.26640236  0.38945509  0.74996730     0.24500
C785        C  0.26400210  0.36453415  0.73525836    -0.18800
C786        C  0.26169060  0.36197065  0.70440980    -0.08800
C787        C  0.26671627  0.39248104  0.78273145    -0.19000
C788        C  0.27403038  0.37747995  0.80152536    -0.23800
C789        C  0.27236107  0.37930367  0.83427376     0.26500
C790        C  0.27096875  0.35646330  0.85100354    -0.20600
C791        C  0.26755216  0.35615162  0.88156239    -0.10300
C792        C  0.26557081  0.37882015  0.89630085    -0.10800
C793        C  0.26829626  0.40239919  0.87976311    -0.03700
C794        C  0.27179414  0.40274289  0.84915298    -0.18800
H795        H  0.26447495  0.42670604  0.69016621     0.10200
H796        H  0.26842662  0.43106875  0.74373554     0.10300
H797        H  0.26289340  0.34649813  0.74735791     0.10000
H798        H  0.25930150  0.34227784  0.69384220     0.11100
H799        H  0.26022607  0.40764232  0.79145778     0.11200
H800        H  0.28049043  0.36229438  0.79275749     0.13100
H801        H  0.27175868  0.33832831  0.84028800     0.09600
H802        H  0.26582516  0.33773430  0.89351844     0.11700
H803        H  0.26733913  0.42046612  0.89039165     0.08300
H804        H  0.27401295  0.42143135  0.83743042     0.11000
C805        C  0.25956298  0.88143691  0.15484176     0.79900
N806        N  0.25634454  0.85712690  0.14032608    -0.78400
C807        C  0.24916450  0.85272724  0.11108037     0.82300
N808        N  0.24526037  0.87275383  0.09626900    -0.78400
C809        C  0.24944208  0.89753495  0.11032696     0.82400
N810        N  0.25664396  0.90180406  0.13947738    -0.80100
C811        C  0.25675810  0.87648106  0.42867856     0.79900
N812        N  0.25360822  0.89763622  0.44300247    -0.78400
C813        C  0.24709259  0.89524146  0.47215890     0.82300
N814        N  0.24373659  0.87163384  0.48706901    -0.78400
C815        C  0.24771373  0.85091239  0.47316758     0.82400
N816        N  0.25430117  0.85347605  0.44411662    -0.80100
C817        C  0.10433900  0.87693813  0.42886534     0.79900
N818        N  0.08421434  0.85355750  0.44403228    -0.78400
C819        C  0.08845224  0.85083430  0.47309590     0.82300
N820        N  0.11292471  0.87176949  0.48732688    -0.78400
C821        C  0.13275937  0.89575054  0.47274191     0.82400
N822        N  0.12843936  0.89828781  0.44353984    -0.80100
C823        C  0.10918922  0.88111044  0.15451927     0.79900
N824        N  0.08818550  0.85672821  0.13988162    -0.78400
C825        C  0.09086292  0.85235732  0.11066458     0.82300
N826        N  0.11461771  0.87249425  0.09596349    -0.78400
C827        C  0.13519181  0.89731420  0.11010820     0.82400
N828        N  0.13234211  0.90154792  0.13924829    -0.80100
C829        C  0.10794715  0.72703849  0.15370029     0.79900
N830        N  0.08690534  0.73024138  0.13946851    -0.78400
C831        C  0.08974967  0.73731569  0.11046000     0.82300
N832        N  0.11367072  0.74117855  0.09561666    -0.78400
C833        C  0.13427702  0.73716674  0.10936978     0.82400
N834        N  0.13126161  0.73000570  0.13824798    -0.80100
C835        C  0.10545465  0.72642855  0.42815115     0.79900
N836        N  0.08495080  0.72916998  0.44368499    -0.78400
C837        C  0.08915268  0.73661038  0.47282534     0.82300
N838        N  0.11396476  0.74108094  0.48674771    -0.78400
C839        C  0.13414782  0.73734475  0.47179693     0.82400
N840        N  0.12990467  0.73009255  0.44249549    -0.80100
C841        C  0.37141355  0.60931487  0.42732240     0.79900
N842        N  0.39280137  0.63350382  0.44180160    -0.78400
C843        C  0.39024748  0.63820975  0.47090441     0.82300
N844        N  0.36621874  0.61854491  0.48568251    -0.78400
C845        C  0.34519814  0.59389608  0.47162505     0.82400
N846        N  0.34794747  0.58939146  0.44256898    -0.80100
C847        C  0.37685994  0.61504103  0.15484059     0.79900
N848        N  0.39682551  0.63855641  0.13971220    -0.78400
C849        C  0.39223298  0.64158264  0.11083625     0.82300
N850        N  0.36749213  0.62081037  0.09681044    -0.78400
C851        C  0.34777466  0.59672160  0.11138568     0.82400
N852        N  0.35256392  0.59382891  0.14034324    -0.80100
C853        C  0.37656569  0.76401570  0.15488892     0.79900
N854        N  0.35187951  0.76010754  0.14092920    -0.78400
C855        C  0.34670890  0.75162533  0.11201195     0.82300
N856        N  0.36639355  0.74719214  0.09691475    -0.78400
C857        C  0.39151803  0.75197438  0.11039796     0.82400
N858        N  0.39651484  0.76043144  0.13926555    -0.80100
C859        C  0.37204602  0.76085063  0.42746392     0.79900
N860        N  0.39320363  0.75770256  0.44151761    -0.78400
C861        C  0.39063122  0.75088580  0.47056479     0.82300
N862        N  0.36687238  0.74727770  0.48558676    -0.78400
C863        C  0.34618686  0.75128423  0.47194680     0.82400
N864        N  0.34893155  0.75813503  0.44305134    -0.80100
C865        C  0.22276310  0.60957358  0.42751137     0.79900
N866        N  0.22608346  0.63398770  0.44187702    -0.78400
C867        C  0.23392474  0.63880278  0.47096160     0.82300
N868        N  0.23821188  0.61900637  0.48578828    -0.78400
C869        C  0.23396596  0.59413902  0.47185652     0.82400
N870        N  0.22623537  0.58954481  0.44286340    -0.80100
C871        C  0.22471878  0.61426018  0.15434432     0.79900
N872        N  0.22844382  0.59338994  0.14014318    -0.78400
C873        C  0.23545733  0.59603772  0.11110694     0.82300
N874        N  0.23877391  0.61963132  0.09623235    -0.78400
C875        C  0.23422913  0.64003297  0.11000285     0.82400
N876        N  0.22708300  0.63720337  0.13889325    -0.80100
O877        O  0.26455267  0.81824799  0.10340403    -0.75600
O878        O  0.22808793  0.81584219  0.07381765    -0.54600
C879        C  0.24697043  0.82719461  0.09516120     0.78100
O880        O  0.31315331  0.76799177  0.48131428    -0.60200
O881        O  0.31100369  0.73104048  0.01011562    -0.53300
C882        C  0.32189259  0.75002924  0.48860799     0.70100
O883        O  0.26440434  0.81792616  0.48197321    -0.74800
O884        O  0.22739435  0.81480600  0.00932092    -0.55400
C885        C  0.24647783  0.82664690  0.48964486     0.76100
O886        O  0.31251122  0.76739906  0.10455066    -0.60000
O887        O  0.31026381  0.73086130  0.07478532    -0.53100
C888        C  0.32128991  0.74955519  0.09635049     0.72700
Zr889      Zr  0.27796717  0.78218977  0.08685519     2.54700
O890        O  0.32416520  0.82834889  0.08526147    -0.80500
O891        O  0.27896178  0.78326219  0.14058575    -0.93900
Zr892      Zr  0.27902087  0.78276080  0.99938745     2.64700
O893        O  0.32537000  0.82797487  0.00782375    -0.98900
O894        O  0.28419993  0.78849133  0.44585392    -0.80900
O895        O  0.26487836  0.79748377  0.04308277    -0.84300
O896        O  0.29350785  0.76893880  0.04309474    -2.19000
O897        O  0.21742772  0.67279856  0.10073280    -0.67700
O898        O  0.25456624  0.67519947  0.07300860    -0.52300
C899        C  0.23560491  0.66427567  0.09351996     0.71100
O900        O  0.16761086  0.72088507  0.48027431    -0.60600
O901        O  0.17062310  0.75793428  0.00853432    -0.52600
C902        C  0.15942239  0.73935802  0.48778824     0.72900
O903        O  0.21817347  0.67297747  0.47881582    -0.72000
O904        O  0.25494331  0.67476922  0.00842005    -0.50700
C905        C  0.23600290  0.66428208  0.48685286     0.74300
O906        O  0.16717300  0.72051410  0.09988671    -0.67300
O907        O  0.17045468  0.75824960  0.07282117    -0.54500
C908        C  0.15887279  0.73884776  0.09288809     0.72600
Zr909      Zr  0.20278186  0.70710586  0.08322869     2.77500
O910        O  0.15769975  0.66060508  0.07487067    -0.98100
O911        O  0.19870877  0.70419403  0.13661290    -0.78900
Zr912      Zr  0.20414240  0.70764345  0.99581259     2.70100
O913        O  0.15871208  0.66073080  0.99606332    -0.80100
O914        O  0.20432219  0.71013687  0.44285810    -0.99200
Zr915      Zr  0.21267583  0.77328253  0.04131795     2.21500
Zr916      Zr  0.26908486  0.71666624  0.04140821     2.11100
O917        O  0.21694249  0.69242052  0.03963817    -2.47900
O918        O  0.18856507  0.72109874  0.03946918    -0.79900
O919        O  0.25453518  0.73030755  0.08573623    -0.72100
O920        O  0.22732088  0.75989722  0.49729525    -2.33100
O921        O  0.22615409  0.75894746  0.08569815    -2.29300
O922        O  0.25594232  0.73157444  0.49681114    -0.73900
H923        H  0.31452118  0.77719833  0.04356859     0.78100
H924        H  0.22098050  0.76599459  0.48013245     0.79200
H925        H  0.20852848  0.67136590  0.03911875     0.81400
H926        H  0.21968522  0.76510010  0.10286422     0.79000
H927        H  0.26469039  0.77379952  0.43776558     0.42100
H928        H  0.22387073  0.71346215  0.43727145     0.41000
H929        H  0.15291431  0.65599727  0.97500581     0.40700
H930        H  0.14929034  0.65478289  0.09471694     0.38600
H931        H  0.21758845  0.72065397  0.14412487     0.41800
H932        H  0.25912678  0.77899129  0.14628295     0.36600
H933        H  0.33607915  0.82483443  0.07074870     0.42700
H934        H  0.33614855  0.83074035  0.98927203     0.39100
H935        H  0.14440950  0.66585802  0.06451755     0.44000
H936        H  0.29196081  0.80416174  0.14625589     0.42700
H937        H  0.32944974  0.83853319  0.48735082     0.42900
H938        H  0.19047607  0.68976634  0.43609474     0.41700
O939        O  0.03910747  0.81718150  0.48136994    -0.75600
O940        O  0.07417193  0.81360219  0.00960756    -0.54600
C941        C  0.06581436  0.82617710  0.48924625     0.78100
O942        O  0.44102570  0.76834602  0.10116675    -0.60200
O943        O  0.40613445  0.73136949  0.07206750    -0.53300
C944        C  0.41424673  0.75026570  0.09347394     0.70100
O945        O  0.04082926  0.81897111  0.10181229    -0.74800
O946        O  0.07466558  0.81494953  0.07392530    -0.55400
C947        C  0.06733118  0.82701489  0.09452852     0.76100
O948        O  0.44074117  0.76710764  0.47866428    -0.60000
O949        O  0.40653698  0.73133825  0.00766986    -0.53100
C950        C  0.41422764  0.74940834  0.48638564     0.72700
Zr951      Zr  0.48960706  0.78109434  0.99629399     2.54700
O952        O  0.48794408  0.82647343  0.99850483    -0.80500
O953        O  0.48947327  0.78468554  0.44346220    -0.93900
Zr954      Zr  0.49043276  0.78398811  0.08392043     2.64700
O955        O  0.48966611  0.82968313  0.07984626    -0.98900
O956        O  0.49101624  0.78684091  0.13751970    -0.80900
O957        O  0.01924961  0.79712611  0.04110915    -0.84300
O958        O  0.46158763  0.76917217  0.03985380    -2.19000
O959        O  0.44043977  0.67224109  0.47888963    -0.67700
O960        O  0.40630747  0.67477017  0.00733159    -0.52300
C961        C  0.41393952  0.66362002  0.48675720     0.71100
O962        O  0.03985425  0.72135731  0.10214231    -0.60600
O963        O  0.07392157  0.75783469  0.07389834    -0.52600
C964        C  0.06638429  0.73912216  0.09461155     0.72900
O965        O  0.44175299  0.67512283  0.10251297    -0.72000
O966        O  0.40699011  0.67612064  0.07289524    -0.50700
C967        C  0.41503665  0.66596999  0.09441847     0.74300
O968        O  0.03955486  0.71989871  0.48190359    -0.67300
O969        O  0.07349313  0.75657884  0.00990800    -0.54500
C970        C  0.06627443  0.73845089  0.48931512     0.72600
Zr971      Zr  0.48950404  0.70588217  0.99798893     2.77500
O972        O  0.48817096  0.65967999  0.00649727    -0.98100
O973        O  0.49063219  0.70300486  0.44341962    -0.78900
Zr974      Zr  0.49081780  0.70910449  0.08529684     2.70100
O975        O  0.48962376  0.66233725  0.08176069    -0.80100
O976        O  0.49414706  0.71171675  0.13893508    -0.99200
Zr977      Zr  0.04682606  0.77244576  0.04152104     2.21500
Zr978      Zr  0.43365420  0.71689475  0.04021623     2.11100
O979        O  0.46155229  0.69258186  0.04146942    -2.47900
O980        O  0.01863500  0.72024859  0.04134127    -0.79900
O981        O  0.46172243  0.73050020  0.49591117    -0.72100
O982        O  0.01933943  0.75979054  0.08567255    -2.33100
O983        O  0.01872541  0.75842070  0.49716230    -2.29300
O984        O  0.46207396  0.73221694  0.08476541    -0.73900
H985        H  0.44895794  0.77755134  0.03948856     0.78100
H986        H  0.03200487  0.76627378  0.10293556     0.79200
H987        H  0.44889329  0.67155620  0.04165235     0.81400
H988        H  0.03104540  0.76427090  0.48011275     0.79000
H989        H  0.00223905  0.77689462  0.14486408     0.42100
H990        H  0.47701992  0.71324344  0.14532518     0.41000
H991        H  0.00396276  0.66401068  0.06685598     0.40700
H992        H  0.49309513  0.65428610  0.98723906     0.38600
H993        H  0.48478390  0.71705507  0.43629843     0.41800
H994        H  0.00496584  0.77601490  0.43789687     0.36600
H995        H  0.97642511  0.82637172  0.98512471     0.42700
H996        H  0.46961022  0.82370994  0.07270628     0.39100
H997        H  0.50910419  0.66608780  0.50891059     0.44000
H998        H  0.49788783  0.80577087  0.43929091     0.42700
H999        H  0.49029676  0.83634721  0.10051525     0.42900
H1000       H  0.48968783  0.69189382  0.14480845     0.43200
O1001       O  0.26348688  0.94529290  0.48030561    -0.75600
O1002       O  0.22683717  0.91095340  0.00868043    -0.54600
C1003       C  0.24556693  0.91889289  0.48802615     0.78100
O1004       O  0.31413856  0.54654840  0.10295200    -0.60200
O1005       O  0.31138534  0.58014941  0.07391138    -0.53300
C1006       C  0.32264064  0.57300426  0.09521317     0.70100
O1007       O  0.26551766  0.94706673  0.10160048    -0.74800
O1008       O  0.22803342  0.91196769  0.07314380    -0.55400
C1009       C  0.24743911  0.92023600  0.09395199     0.76100
O1010       O  0.31175221  0.54431189  0.48011206    -0.60000
O1011       O  0.31058452  0.57854761  0.00912183    -0.53100
C1012       C  0.32067390  0.57111379  0.48802826     0.72700
Zr1013     Zr  0.27731814  0.99459835  0.99714021     2.54700
O1014       O  0.32486705  0.99746672  0.99925868    -0.80500
O1015       O  0.27814104  0.49437330  0.44309786    -0.93900
Zr1016     Zr  0.27916298  0.99608876  0.08494885     2.64700
O1017       O  0.32449609  0.99467084  0.08112999    -0.98900
O1018       O  0.28450842  0.49638512  0.13806521    -0.80900
O1019       O  0.26489472  0.96686152  0.04091011    -0.84300
O1020       O  0.29381585  0.52413870  0.04074763    -2.19000
O1021       O  0.21778292  0.54452749  0.48036887    -0.67700
O1022       O  0.25452180  0.57855024  0.00898801    -0.52300
C1023       C  0.23566761  0.57131834  0.48835197     0.71100
O1024       O  0.16830085  0.94693091  0.10142653    -0.60600
O1025       O  0.17104864  0.91200833  0.07324649    -0.52600
C1026       C  0.15975572  0.92014137  0.09382558     0.72900
O1027       O  0.21968048  0.54606807  0.10303819    -0.72000
O1028       O  0.25541885  0.57981656  0.07390524    -0.50700
C1029       C  0.23722597  0.57252955  0.09517359     0.74300
O1030       O  0.16675754  0.94578914  0.48099407    -0.67300
O1031       O  0.17023423  0.91077692  0.00948504    -0.54500
C1032       C  0.15805512  0.91934510  0.48884766     0.72600
Zr1033     Zr  0.20194801  0.99408701  0.99823036     2.77500
O1034       O  0.15560625  0.99289000  0.00549048    -0.98100
O1035       O  0.19710987  0.99328213  0.44505417    -0.78900
Zr1036     Zr  0.20414217  0.99600993  0.08568600     2.70100
O1037       O  0.15831428  0.99665792  0.08310053    -0.80100
O1038       O  0.20419507  0.99552073  0.13936891    -0.99200
Zr1039     Zr  0.21273094  0.93866158  0.04135401     2.21500
Zr1040     Zr  0.26936798  0.55197016  0.04143502     2.11100
O1041       O  0.21712911  0.52396393  0.04197741    -2.47900
O1042       O  0.18832725  0.96644548  0.04190142    -0.79900
O1043       O  0.25395125  0.52362614  0.49672567    -0.72100
O1044       O  0.22745634  0.96750499  0.08586741    -2.33100
O1045       O  0.22587345  0.96660669  0.49711928    -2.29300
O1046       O  0.25676492  0.52516631  0.08587157    -0.73900
H1047       H  0.31482684  0.53693671  0.04062827     0.78100
H1048       H  0.22149033  0.95531295  0.10299682     0.79200
H1049       H  0.20870848  0.53660965  0.04220636     0.81400
H1050       H  0.21913118  0.95373835  0.47989017     0.79000
H1051       H  0.26112937  0.98503561  0.14474632     0.42100
H1052       H  0.22711488  0.51239187  0.14478466     0.41000
H1053       H  0.14544790  0.97978662  0.06993107     0.40700
H1054       H  0.16285396  0.51633172  0.00492646     0.38600
H1055       H  0.20947549  0.48696033  0.43695431     0.41800
H1056       H  0.25795646  0.98116955  0.43737670     0.36600
H1057       H  0.32377544  0.98563214  0.01643866     0.42700
H1058       H  0.34094188  0.51804988  0.07503847     0.39100
H1059       H  0.14381969  0.97782990  0.51362691     0.44000
H1060       H  0.28931315  0.98466909  0.43816280     0.42700
H1061       H  0.33028388  0.99409818  0.10181059     0.42900
H1062       H  0.19457526  0.00678192  0.14542797     0.43200
C1063       C  0.21684574  0.60526380  0.39520969    -0.03600
C1064       C  0.21661939  0.58150393  0.38031894    -0.06200
C1065       C  0.21344754  0.57846613  0.34967455    -0.21200
C1066       C  0.21041135  0.59902038  0.33296673     0.24500
C1067       C  0.20951621  0.62226582  0.34792761    -0.18800
C1068       C  0.21281885  0.62537898  0.37868296    -0.08800
C1069       C  0.20875157  0.59531396  0.30018954    -0.19000
C1070       C  0.21246022  0.61636395  0.28127532    -0.23800
C1071       C  0.21343998  0.61348996  0.24859677     0.26500
C1072       C  0.21005009  0.63333828  0.23103878    -0.20600
C1073       C  0.21288111  0.63302926  0.20044308    -0.10300
C1074       C  0.21934108  0.61288350  0.18654600    -0.10800
C1075       C  0.22228460  0.59266327  0.20400939    -0.03700
C1076       C  0.21950868  0.59301114  0.23467234    -0.18800
H1077       H  0.21955541  0.56547816  0.39224164     0.10200
H1078       H  0.21400937  0.56022828  0.33891283     0.10300
H1079       H  0.20632977  0.63818864  0.33623748     0.10000
H1080       H  0.21257745  0.64377197  0.38944798     0.11100
H1081       H  0.20531417  0.57450412  0.29148015     0.11200
H1082       H  0.21549578  0.63707104  0.28976295     0.13100
H1083       H  0.20555652  0.64946501  0.24108836     0.09600
H1084       H  0.21045809  0.64895640  0.18775000     0.11700
H1085       H  0.22759910  0.57707775  0.19410014     0.08300
H1086       H  0.22318263  0.57785628  0.24724918     0.11000
C1087       C  0.38118213  0.77077405  0.18705663    -0.03600
C1088       C  0.40654231  0.77432454  0.20141137    -0.06200
C1089       C  0.40973594  0.77793699  0.23205265    -0.21200
C1090       C  0.38768809  0.77797626  0.24919337     0.24500
C1091       C  0.36286354  0.77576369  0.23473070    -0.18800
C1092       C  0.35965973  0.77213936  0.20404077    -0.08800
C1093       C  0.39149198  0.78001638  0.28190787    -0.19000
C1094       C  0.36925709  0.77202535  0.30078450    -0.23800
C1095       C  0.37243058  0.77183141  0.33339203     0.26500
C1096       C  0.35052402  0.77172979  0.35083451    -0.20600
C1097       C  0.35098265  0.76907665  0.38135465    -0.10300
C1098       C  0.37330682  0.76619028  0.39531571    -0.10800
C1099       C  0.39567613  0.76691283  0.37797913    -0.03700
C1100       C  0.39524605  0.76965033  0.34732370    -0.18800
H1101       H  0.42373070  0.77366395  0.18907392     0.10200
H1102       H  0.42924327  0.77995575  0.24248204     0.10300
H1103       H  0.34578597  0.77678991  0.24680585     0.10000
H1104       H  0.34001321  0.76985728  0.19370926     0.11100
H1105       H  0.41337380  0.78735744  0.29057278     0.11200
H1106       H  0.34735779  0.76475877  0.29228132     0.13100
H1107       H  0.33265790  0.77327283  0.34073599     0.09600
H1108       H  0.33337914  0.76866199  0.39390488     0.11700
H1109       H  0.41310934  0.76458015  0.38796509     0.08300
H1110       H  0.41218446  0.76889646  0.33468629     0.11000
C1111       C  0.37298319  0.60509660  0.39506208    -0.03600
C1112       C  0.35006321  0.58078265  0.38003117    -0.06200
C1113       C  0.35027194  0.57786972  0.34938206    -0.21200
C1114       C  0.37336204  0.59905864  0.33284795     0.24500
C1115       C  0.39676128  0.62306083  0.34797494    -0.18800
C1116       C  0.39655445  0.62595992  0.37869959    -0.08800
C1117       C  0.37086252  0.59604224  0.30001233    -0.19000
C1118       C  0.39251571  0.61269414  0.28142703    -0.23800
C1119       C  0.38845829  0.61169119  0.24879467     0.26500
C1120       C  0.40765572  0.63646395  0.23289102    -0.20600
C1121       C  0.40415726  0.63727329  0.20243525    -0.10300
C1122       C  0.38135250  0.61320902  0.18696331    -0.10800
C1123       C  0.36256368  0.58801039  0.20270936    -0.03700
C1124       C  0.36613780  0.58717250  0.23326431    -0.18800
H1125       H  0.33153421  0.56422145  0.39184044     0.10200
H1126       H  0.33193467  0.55918017  0.33847053     0.10300
H1127       H  0.41488252  0.64025413  0.33641341     0.10000
H1128       H  0.41457250  0.64498415  0.38952916     0.11100
H1129       H  0.34958039  0.58001881  0.29091540     0.11200
H1130       H  0.41377837  0.62904088  0.29018760     0.13100
H1131       H  0.42513104  0.65559144  0.24418331     0.09600
H1132       H  0.41909704  0.65706954  0.19112722     0.11700
H1133       H  0.34498831  0.56894889  0.19146460     0.08300
H1134       H  0.35146412  0.56724697  0.24445851     0.11000
C1135       C  0.10149224  0.72080460  0.39571875    -0.03600
C1136       C  0.07417769  0.71199298  0.38211480    -0.06200
C1137       C  0.07084697  0.70926710  0.35141268    -0.21200
C1138       C  0.09464525  0.71521799  0.33335111     0.24500
C1139       C  0.12194752  0.72353791  0.34699509    -0.18800
C1140       C  0.12522463  0.72607666  0.37779620    -0.08800
C1141       C  0.09024041  0.71415035  0.30062714    -0.19000
C1142       C  0.10926011  0.71412752  0.28084233    -0.23800
C1143       C  0.10651403  0.71535613  0.24808784     0.26500
C1144       C  0.12860572  0.71563389  0.23071909    -0.20600
C1145       C  0.12858111  0.71867029  0.20018754    -0.10300
C1146       C  0.10636376  0.72150139  0.18593589    -0.10800
C1147       C  0.08368243  0.72038582  0.20307756    -0.03700
C1148       C  0.08372415  0.71738714  0.23377851    -0.18800
H1149       H  0.05535923  0.70763824  0.39518315     0.10200
H1150       H  0.04959235  0.70290677  0.34170169     0.10300
H1151       H  0.14117824  0.72911321  0.33420163     0.10000
H1152       H  0.14664560  0.73320008  0.38749862     0.11100
H1153       H  0.07038950  0.71342131  0.29290963     0.11200
H1154       H  0.12834849  0.71347828  0.28883840     0.13100
H1155       H  0.14641712  0.71404938  0.24089006     0.09600
H1156       H  0.14640487  0.71932921  0.18783945     0.11700
H1157       H  0.06616761  0.72243680  0.19287396     0.08300
H1158       H  0.06610842  0.71723075  0.24592969     0.11000
C1159       C  0.10751663  0.88508523  0.18695398    -0.03600
C1160       C  0.13010505  0.90959555  0.20212611    -0.06200
C1161       C  0.12954006  0.91264655  0.23278207    -0.21200
C1162       C  0.10651880  0.89130221  0.24929963     0.24500
C1163       C  0.08340357  0.86713996  0.23404969    -0.18800
C1164       C  0.08398574  0.86407021  0.20330602    -0.08800
C1165       C  0.10800202  0.89526286  0.28216884    -0.19000
C1166       C  0.09132380  0.87398767  0.30114467    -0.23800
C1167       C  0.09456587  0.87725026  0.33401214     0.26500
C1168       C  0.07187262  0.85634670  0.35116775    -0.20600
C1169       C  0.07470043  0.85682730  0.38189569    -0.10300
C1170       C  0.10045177  0.87822197  0.39644151    -0.10800
C1171       C  0.12294162  0.89964134  0.37940847    -0.03700
C1172       C  0.12012304  0.89913619  0.34858886    -0.18800
H1173       H  0.14857157  0.92633380  0.19039516     0.10200
H1174       H  0.14755499  0.93160869  0.24371918     0.10300
H1175       H  0.06474367  0.85049495  0.24551251     0.10000
H1176       H  0.06606503  0.84503053  0.19239578     0.11100
H1177       H  0.12438107  0.91658205  0.29093389     0.11200
H1178       H  0.07467859  0.85273302  0.29254915     0.13100
H1179       H  0.05196533  0.83918930  0.34069466     0.09600
H1180       H  0.05683139  0.83998973  0.39418528     0.11700
H1181       H  0.14315621  0.91633187  0.38979272     0.08300
H1182       H  0.13850374  0.91531627  0.33641688     0.11000
C1183       C  0.26438941  0.88501425  0.18733803    -0.03600
C1184       C  0.26721289  0.91001559  0.20212651    -0.06200
C1185       C  0.26955129  0.91255288  0.23285973    -0.21200
C1186       C  0.26912157  0.89024367  0.24975867     0.24500
C1187       C  0.26693106  0.86542857  0.23493021    -0.18800
C1188       C  0.26456756  0.86288665  0.20411833    -0.08800
C1189       C  0.27083883  0.89403462  0.28254790    -0.19000
C1190       C  0.26631482  0.87282742  0.30159299    -0.23800
C1191       C  0.26634182  0.87631711  0.33425672     0.26500
C1192       C  0.26959785  0.85636411  0.35174921    -0.20600
C1193       C  0.26739021  0.85704162  0.38238043    -0.10300
C1194       C  0.26169411  0.87766261  0.39639444    -0.10800
C1195       C  0.25910925  0.89815462  0.37899952    -0.03700
C1196       C  0.26129496  0.89745570  0.34826788    -0.18800
H1197       H  0.26717292  0.92754772  0.19001317     0.10200
H1198       H  0.27129885  0.93195365  0.24351102     0.10300
H1199       H  0.26703270  0.84782316  0.24668895     0.10000
H1200       H  0.26246380  0.84333488  0.19349347     0.11100
H1201       H  0.27564556  0.91533332  0.29121215     0.11200
H1202       H  0.26215804  0.85165806  0.29332353     0.13100
H1203       H  0.27342458  0.83981742  0.34161852     0.09600
H1204       H  0.26961292  0.84096611  0.39501589     0.11700
H1205       H  0.25448004  0.91418628  0.38901804     0.08300
H1206       H  0.25787995  0.91279032  0.33569869     0.11000
C1207       C  0.25897732  0.88210460  0.65491989     0.79900
N1208       N  0.25573979  0.85765055  0.64065900    -0.78400
C1209       C  0.24893335  0.85320009  0.61131351     0.82300
N1210       N  0.24543342  0.87329710  0.59615232    -0.78400
C1211       C  0.24959480  0.89815689  0.60997909     0.82400
N1212       N  0.25638651  0.90247267  0.63921114    -0.80100
C1213       C  0.25925704  0.87751998  0.92884937     0.79900
N1214       N  0.25559888  0.89827027  0.94336560    -0.78400
C1215       C  0.24781213  0.89498759  0.97218711     0.82300
N1216       N  0.24368878  0.87085937  0.98660317    -0.78400
C1217       C  0.24820402  0.85052099  0.97261200     0.82400
N1218       N  0.25607334  0.85398108  0.94386864    -0.80100
C1219       C  0.10527028  0.87520608  0.92880112     0.79900
N1220       N  0.08499104  0.85201123  0.94404062    -0.78400
C1221       C  0.08906462  0.84953908  0.97318587     0.82300
N1222       N  0.11351286  0.87049942  0.98738879    -0.78400
C1223       C  0.13345433  0.89428061  0.97265041     0.82400
N1224       N  0.12929331  0.89662508  0.94342341    -0.80100
C1225       C  0.11033083  0.88120842  0.65506065     0.79900
N1226       N  0.08895775  0.85728252  0.64019419    -0.78400
C1227       C  0.09132541  0.85339464  0.61083094     0.82300
N1228       N  0.11521377  0.87349259  0.59626238    -0.78400
C1229       C  0.13615692  0.89789563  0.61067987     0.82400
N1230       N  0.13358801  0.90170113  0.63995717    -0.80100
C1231       C  0.10931089  0.72930319  0.65431156     0.79900
N1232       N  0.08845731  0.73286367  0.64013339    -0.78400
C1233       C  0.09113303  0.73957902  0.61103563     0.82300
N1234       N  0.11473377  0.74272320  0.59607176    -0.78400
C1235       C  0.13514029  0.73834294  0.60980652     0.82400
N1236       N  0.13227781  0.73155289  0.63877047    -0.80100
C1237       C  0.10456837  0.72460052  0.92847325     0.79900
N1238       N  0.08395700  0.72714729  0.94399393    -0.78400
C1239       C  0.08811793  0.73458627  0.97312028     0.82300
N1240       N  0.11303259  0.73933012  0.98704080    -0.78400
C1241       C  0.13329379  0.73573692  0.97207536     0.82400
N1242       N  0.12905792  0.72842864  0.94281199    -0.80100
C1243       C  0.37102557  0.60909054  0.92669207     0.79900
N1244       N  0.39247964  0.63323099  0.94124784    -0.78400
C1245       C  0.39011098  0.63763560  0.97050544     0.82300
N1246       N  0.36630876  0.61773528  0.98531269    -0.78400
C1247       C  0.34531420  0.59315751  0.97121895     0.82400
N1248       N  0.34778438  0.58891579  0.94202834    -0.80100
C1249       C  0.37668689  0.61486026  0.65346718     0.79900
N1250       N  0.39664357  0.63838739  0.63835980    -0.78400
C1251       C  0.39218262  0.64117556  0.60937452     0.82300
N1252       N  0.36763493  0.62020500  0.59526600    -0.78400
C1253       C  0.34798880  0.59617317  0.60993380     0.82400
N1254       N  0.35258207  0.59353697  0.63893600    -0.80100
C1255       C  0.37722209  0.76459158  0.65475164     0.79900
N1256       N  0.35289376  0.76128560  0.64047580    -0.78400
C1257       C  0.34802432  0.75314100  0.61143602     0.82300
N1258       N  0.36765317  0.74842293  0.59658178    -0.78400
C1259       C  0.39239480  0.75256267  0.61043182     0.82400
N1260       N  0.39709186  0.76071092  0.63936357    -0.80100
C1261       C  0.37131873  0.76074509  0.92754473     0.79900
N1262       N  0.39271391  0.75784588  0.94146027    -0.78400
C1263       C  0.39028263  0.75083841  0.97047001     0.82300
N1264       N  0.36648812  0.74690834  0.98561666    -0.78400
C1265       C  0.34557826  0.75064628  0.97213982     0.82400
N1266       N  0.34812733  0.75761252  0.94326403    -0.80100
C1267       C  0.22312705  0.60933293  0.92696790     0.79900
N1268       N  0.22667726  0.63371289  0.94160786    -0.78400
C1269       C  0.23448139  0.63826747  0.97068666     0.82300
N1270       N  0.23859599  0.61822095  0.98524646    -0.78400
C1271       C  0.23422547  0.59338688  0.97106894     0.82400
N1272       N  0.22645844  0.58903968  0.94204300    -0.80100
C1273       C  0.22784831  0.61681145  0.65508366     0.79900
N1274       N  0.22994103  0.59496871  0.64080108    -0.78400
C1275       C  0.23591861  0.59681486  0.61151288     0.82300
N1276       N  0.23965079  0.62050675  0.59645824    -0.78400
C1277       C  0.23670429  0.64187868  0.61036500     0.82400
N1278       N  0.23076907  0.63990027  0.63951793    -0.80100
O1279       O  0.26528597  0.81948161  0.60313905    -0.75600
O1280       O  0.22747954  0.81572791  0.57475418    -0.54600
C1281       C  0.24691879  0.82768170  0.59553681     0.78100
O1282       O  0.31233381  0.76685787  0.98135692    -0.60200
O1283       O  0.31117682  0.73145940  0.50939417    -0.53300
C1284       C  0.32136021  0.74925210  0.98896579     0.70100
O1285       O  0.26486696  0.81755102  0.98187434    -0.74800
O1286       O  0.22780844  0.81578435  0.51046663    -0.55400
C1287       C  0.24657615  0.82598540  0.98896039     0.76100
O1288       O  0.31401411  0.76916088  0.60367973    -0.60000
O1289       O  0.31149106  0.73235938  0.57412568    -0.53100
C1290       C  0.32270412  0.75121520  0.59557139     0.72700
Zr1291     Zr  0.27917841  0.78374510  0.58629559     2.54700
O1292       O  0.32481247  0.82987792  0.58111823    -0.80500
O1293       O  0.28365915  0.78680654  0.63990001    -0.93900
Zr1294     Zr  0.27915967  0.78344414  0.49901682     2.64700
O1295       O  0.32474691  0.82954183  0.50700191    -0.98900
O1296       O  0.28441615  0.78741392  0.94619331    -0.80900
O1297       O  0.26519166  0.79833724  0.54271159    -0.84300
O1298       O  0.29425964  0.77003788  0.54254894    -2.19000
O1299       O  0.22011534  0.67493431  0.60160278    -0.67700
O1300       O  0.25596531  0.67628959  0.57251320    -0.52300
C1301       C  0.23781811  0.66597461  0.59376061     0.71100
O1302       O  0.16731866  0.72003551  0.98016026    -0.60600
O1303       O  0.17124711  0.75894510  0.50856871    -0.52600
C1304       C  0.15883296  0.73822738  0.98785626     0.72900
O1305       O  0.21854378  0.67236546  0.97875650    -0.72000
O1306       O  0.25487263  0.67566612  0.50817797    -0.50700
C1307       C  0.23632186  0.66357665  0.98686729     0.74300
O1308       O  0.16832135  0.72179812  0.60064277    -0.67300
O1309       O  0.17083000  0.75882209  0.57294429    -0.54500
C1310       C  0.15963531  0.73978601  0.59332977     0.72600
Zr1311     Zr  0.20413290  0.70836549  0.58415303     2.77500
O1312       O  0.15911553  0.66129786  0.57860797    -0.98100
O1313       O  0.20218183  0.70726209  0.63772137    -0.78900
Zr1314     Zr  0.20409097  0.70814571  0.49645552     2.70100
O1315       O  0.15896928  0.66088393  0.49688069    -0.80100
O1316       O  0.20544339  0.71055637  0.94227078    -0.99200
Zr1317     Zr  0.21299899  0.77379809  0.54170475     2.21500
Zr1318     Zr  0.26980774  0.71775026  0.54114364     2.11100
O1319       O  0.21764074  0.69341354  0.54024982    -2.47900
O1320       O  0.18890244  0.72157892  0.54042221    -0.79900
O1321       O  0.25590191  0.73185301  0.58559398    -0.72100
O1322       O  0.22726542  0.75941643  0.99703714    -2.33100
O1323       O  0.22730493  0.76016606  0.58605805    -2.29300
O1324       O  0.25589852  0.73092676  0.99697786    -0.73900
H1325       H  0.31528317  0.77837821  0.54287334     0.78100
H1326       H  0.22109227  0.76558539  0.97980414     0.79200
H1327       H  0.20938000  0.67237670  0.53995797     0.81400
H1328       H  0.22098870  0.76638810  0.60329007     0.79000
H1329       H  0.26892302  0.76824429  0.93807761     0.42100
H1330       H  0.22387024  0.71112333  0.93676285     0.41000
H1331       H  0.16329661  0.64865842  0.51004685     0.40700
H1332       H  0.14744652  0.66033155  0.59600169     0.38600
H1333       H  0.21826413  0.72681117  0.64428875     0.41800
H1334       H  0.26514228  0.78517557  0.64685617     0.36600
H1335       H  0.31922111  0.84240673  0.56996774     0.42700
H1336       H  0.33972308  0.82379014  0.51065080     0.39100
H1337       H  0.14859525  0.66380865  0.56175066     0.44000
H1338       H  0.29880355  0.80740640  0.64444150     0.42700
H1339       H  0.32019927  0.84365728  0.00802617     0.42900
H1340       H  0.18970827  0.69105996  0.93514668     0.41700
O1341       O  0.03960099  0.81718537  0.98216228    -0.75600
O1342       O  0.07396464  0.81535079  0.51003903    -0.54600
C1343       C  0.06623989  0.82520117  0.98942523     0.78100
O1344       O  0.44184303  0.76818702  0.60204414    -0.60200
O1345       O  0.40706209  0.73202842  0.57214916    -0.53300
C1346       C  0.41511689  0.75057716  0.59385458     0.70100
O1347       O  0.04113276  0.81997921  0.60210113    -0.74800
O1348       O  0.07497771  0.81649023  0.57370617    -0.55400
C1349       C  0.06765418  0.82828092  0.59456638     0.76100
O1350       O  0.44030705  0.76614449  0.97780615    -0.60000
O1351       O  0.40685992  0.73122716  0.50754220    -0.53100
C1352       C  0.41385662  0.74909464  0.98609454     0.72700
Zr1353     Zr  0.49021058  0.78239513  0.49704337     2.54700
O1354       O  0.48952907  0.82815096  0.50252953    -0.80500
O1355       O  0.48976031  0.78084940  0.94258169    -0.93900
Zr1356     Zr  0.49108549  0.78386977  0.58454816     2.64700
O1357       O  0.48965698  0.82905727  0.57926176    -0.98900
O1358       O  0.49169780  0.78862760  0.63804066    -0.80900
O1359       O  0.01929429  0.79791301  0.54108673    -0.84300
O1360       O  0.46213147  0.76971178  0.54055793    -2.19000
O1361       O  0.44025209  0.67106863  0.97933824    -0.67700
O1362       O  0.40663887  0.67511265  0.50787237    -0.52300
C1363       C  0.41371951  0.66293944  0.98658242     0.71100
O1364       O  0.04114677  0.72314223  0.60250229    -0.60600
O1365       O  0.07502153  0.76006857  0.57453757    -0.52600
C1366       C  0.06765309  0.74125969  0.59515659     0.72900
O1367       O  0.44161394  0.67438879  0.60094198    -0.72000
O1368       O  0.40697818  0.67613971  0.57187086    -0.50700
C1369       C  0.41494377  0.66555919  0.59302952     0.74300
O1370       O  0.03858336  0.71843988  0.98186568    -0.67300
O1371       O  0.07428337  0.75828560  0.50983253    -0.54500
C1372       C  0.06533965  0.73670554  0.98943561     0.72600
Zr1373     Zr  0.49010983  0.70700424  0.49690817     2.77500
O1374       O  0.48889990  0.66054000  0.50269327    -0.98100
O1375       O  0.49008320  0.70101110  0.94461089    -0.78900
Zr1376     Zr  0.49088345  0.70857450  0.58451378     2.70100
O1377       O  0.48920783  0.66154543  0.58105359    -0.80100
O1378       O  0.49233912  0.71056037  0.63819406    -0.99200
Zr1379     Zr  0.04733882  0.77371087  0.54171403     2.21500
Zr1380     Zr  0.43433019  0.71742534  0.54011535     2.11100
O1381       O  0.46210916  0.69297780  0.54041663    -2.47900
O1382       O  0.01962504  0.72143928  0.54175726    -0.79900
O1383       O  0.46105022  0.72923517  0.99608397    -0.72100
O1384       O  0.01985142  0.76094125  0.58593815    -2.33100
O1385       O  0.01828599  0.75768640  0.99692557    -2.29300
O1386       O  0.46250115  0.73202130  0.58477572    -0.73900
H1387       H  0.44948215  0.77809563  0.54050940     0.78100
H1388       H  0.03251952  0.76758735  0.60319732     0.79200
H1389       H  0.44944169  0.67196489  0.54026142     0.81400
H1390       H  0.03063426  0.76346663  0.97989375     0.79000
H1391       H  0.99778981  0.77567427  0.64560036     0.42100
H1392       H  0.47768331  0.71626596  0.64370676     0.41000
H1393       H  0.00679898  0.66610749  0.56843481     0.40700
H1394       H  0.48685032  0.65263761  0.48231797     0.38600
H1395       H  0.48828724  0.71763874  0.93717936     0.41800
H1396       H  0.00930249  0.78289443  0.93777731     0.36600
H1397       H  0.97309171  0.82397853  0.51138320     0.42700
H1398       H  0.49195882  0.83697562  0.59966322     0.39100
H1399       H  0.50551730  0.66506346  0.01928345     0.44000
H1400       H  0.49472761  0.80098700  0.93733638     0.42700
H1401       H  0.50835373  0.84261685  0.56973428     0.42900
H1402       H  0.48357889  0.68987838  0.64413524     0.43200
O1403       O  0.26421705  0.94492380  0.98116793    -0.75600
O1404       O  0.22694585  0.91173822  0.50888735    -0.54600
C1405       C  0.24599672  0.91839050  0.98830310     0.78100
O1406       O  0.31403537  0.54612280  0.60206590    -0.60200
O1407       O  0.31132992  0.57979531  0.57309494    -0.53300
C1408       C  0.32271500  0.57254803  0.59412667     0.70100
O1409       O  0.26627078  0.94762665  0.60085114    -0.74800
O1410       O  0.22815448  0.91265070  0.57290825    -0.55400
C1411       C  0.24784921  0.92085195  0.59341276     0.76100
O1412       O  0.31200264  0.54364067  0.97971913    -0.60000
O1413       O  0.31002819  0.57920776  0.50923952    -0.53100
C1414       C  0.32098858  0.57040184  0.98772071     0.72700
Zr1415     Zr  0.27768986  0.99492960  0.49734583     2.54700
O1416       O  0.32388316  0.99507821  0.50142923    -0.80500
O1417       O  0.27552034  0.49441562  0.94309575    -0.93900
Zr1418     Zr  0.27991418  0.99676173  0.58492986     2.64700
O1419       O  0.32572784  0.99640406  0.58027439    -0.98900
O1420       O  0.28097176  0.49726780  0.63834229    -0.80900
O1421       O  0.26502406  0.96729071  0.54106147    -0.84300
O1422       O  0.29313374  0.52405105  0.54094477    -2.19000
O1423       O  0.21789341  0.54358228  0.97965062    -0.67700
O1424       O  0.25438334  0.57939791  0.50976491    -0.52300
C1425       C  0.23583205  0.57041762  0.98751742     0.71100
O1426       O  0.16891882  0.94760112  0.60172197    -0.60600
O1427       O  0.17204647  0.91264052  0.57401871    -0.52600
C1428       C  0.16066335  0.92078978  0.59444857     0.72900
O1429       O  0.21910332  0.54639346  0.60353651    -0.72000
O1430       O  0.25513155  0.57979469  0.57439034    -0.50700
C1431       C  0.23695820  0.57280212  0.59564725     0.74300
O1432       O  0.16684415  0.94437023  0.98094093    -0.67300
O1433       O  0.16960409  0.91209830  0.50984302    -0.54500
C1434       C  0.15854188  0.91795873  0.98864463     0.72600
Zr1435     Zr  0.20259751  0.99513597  0.49847526     2.77500
O1436       O  0.15804320  0.99734898  0.50608451    -0.98100
O1437       O  0.19753024  0.99340164  0.94477401    -0.78900
Zr1438     Zr  0.20476873  0.99679555  0.58597579     2.70100
O1439       O  0.15995150  0.99936727  0.58304377    -0.80100
O1440       O  0.20280061  0.99449040  0.63954708    -0.99200
Zr1441     Zr  0.21283353  0.93948849  0.54140199     2.21500
Zr1442     Zr  0.26882785  0.55205265  0.54142584     2.11100
O1443       O  0.21657571  0.52437326  0.54188130    -2.47900
O1444       O  0.18849167  0.96733715  0.54210009    -0.79900
O1445       O  0.25427326  0.52317551  0.99703008    -0.72100
O1446       O  0.22815079  0.96842813  0.58591661    -2.33100
O1447       O  0.22556987  0.96585129  0.99706467    -2.29300
O1448       O  0.25597136  0.52515738  0.58582774    -0.73900
H1449       H  0.31417361  0.53666685  0.54088868     0.78100
H1450       H  0.22226522  0.95625154  0.60305656     0.79200
H1451       H  0.20830828  0.53715047  0.54213677     0.81400
H1452       H  0.21902562  0.95295761  0.97985342     0.79000
H1453       H  0.26335806  0.98805749  0.64522757     0.42100
H1454       H  0.22389239  0.51095227  0.64552608     0.41000
H1455       H  0.14591187  0.98136520  0.57188621     0.40700
H1456       H  0.16244158  0.51650851  0.50726158     0.38600
H1457       H  0.21606034  0.49602686  0.93731500     0.41800
H1458       H  0.25586986  0.97664593  0.93796829     0.36600
H1459       H  0.32359667  0.98283126  0.48448738     0.42700
H1460       H  0.33266792  0.50040913  0.60349534     0.39100
H1461       H  0.14314042  0.98127544  0.98843080     0.44000
H1462       H  0.28880624  0.98467999  0.93781517     0.42700
H1463       H  0.32036398  0.97815281  0.56887339     0.42900
H1464       H  0.18778288  0.99973231  0.64494058     0.43200
C1465       C  0.21640560  0.60511495  0.89477745    -0.03600
C1466       C  0.21372826  0.58031449  0.87965992    -0.06200
C1467       C  0.20954435  0.57724475  0.84907301    -0.21200
C1468       C  0.20818954  0.59894748  0.83274711     0.24500
C1469       C  0.20947962  0.62313072  0.84795199    -0.18800
C1470       C  0.21364836  0.62620719  0.87860206    -0.08800
C1471       C  0.20610747  0.59573511  0.80001066    -0.19000
C1472       C  0.21530082  0.61862524  0.78189041    -0.23800
C1473       C  0.21629253  0.61620842  0.74923902     0.26500
C1474       C  0.21765197  0.63887279  0.73226168    -0.20600
C1475       C  0.22083009  0.63875815  0.70171991    -0.10300
C1476       C  0.22292072  0.61598024  0.68734285    -0.10800
C1477       C  0.22127698  0.59311084  0.70428437    -0.03700
C1478       C  0.21805569  0.59321561  0.73488315    -0.18800
H1479       H  0.21545320  0.56345852  0.89135047     0.10200
H1480       H  0.20823775  0.55821197  0.83801753     0.10300
H1481       H  0.20733709  0.63977565  0.83639015     0.10000
H1482       H  0.21513608  0.64535977  0.88953615     0.11100
H1483       H  0.19820045  0.57388476  0.79072646     0.11200
H1484       H  0.22323254  0.64047511  0.79116987     0.13100
H1485       H  0.21656358  0.65695116  0.74272807     0.09600
H1486       H  0.22206259  0.65681350  0.68947034     0.11700
H1487       H  0.22306248  0.57537186  0.69400144     0.08300
H1488       H  0.21800180  0.57576774  0.74716095     0.11000
C1489       C  0.38155562  0.77095372  0.68700653    -0.03600
C1490       C  0.40651105  0.77371393  0.70158515    -0.06200
C1491       C  0.40949474  0.77714113  0.73225600    -0.21200
C1492       C  0.38759964  0.77771729  0.74919896     0.24500
C1493       C  0.36318929  0.77620416  0.73454773    -0.18800
C1494       C  0.36020221  0.77279128  0.70382681    -0.08800
C1495       C  0.39111959  0.77975054  0.78193135    -0.19000
C1496       C  0.36855891  0.77106792  0.80055348    -0.23800
C1497       C  0.37139156  0.77097564  0.83325490     0.26500
C1498       C  0.34849674  0.76914791  0.85039853    -0.20600
C1499       C  0.34896915  0.76680028  0.88100899    -0.10300
C1500       C  0.37229914  0.76591896  0.89533437    -0.10800
C1501       C  0.39554102  0.76833113  0.87827321    -0.03700
C1502       C  0.39510345  0.77076831  0.84759272    -0.18800
H1503       H  0.42355758  0.77263455  0.68939377     0.10200
H1504       H  0.42869454  0.77861497  0.74285534     0.10300
H1505       H  0.34632048  0.77769413  0.74655592     0.10000
H1506       H  0.34087908  0.77110295  0.69333148     0.11100
H1507       H  0.41304750  0.78765989  0.79074974     0.11200
H1508       H  0.34663541  0.76307188  0.79168061     0.13100
H1509       H  0.32990352  0.76912792  0.84000815     0.09600
H1510       H  0.33062750  0.76498810  0.89333125     0.11700
H1511       H  0.41377586  0.76759130  0.88851898     0.08300
H1512       H  0.41288307  0.77138385  0.83529400     0.11000
C1513       C  0.37228600  0.60510484  0.89429694    -0.03600
C1514       C  0.34873911  0.58147398  0.87910440    -0.06200
C1515       C  0.34903633  0.57843692  0.84846652    -0.21200
C1516       C  0.37276397  0.59891530  0.83209120     0.24500
C1517       C  0.39676639  0.62216220  0.84734092    -0.18800
C1518       C  0.39643453  0.62524743  0.87804782    -0.08800
C1519       C  0.37134180  0.59495392  0.79935358    -0.19000
C1520       C  0.38833513  0.61631375  0.78067648    -0.23800
C1521       C  0.38571133  0.61329634  0.74788394     0.26500
C1522       C  0.40824457  0.63501795  0.73124185    -0.20600
C1523       C  0.40577849  0.63498415  0.70055954    -0.10300
C1524       C  0.38059259  0.61317400  0.68566534    -0.10800
C1525       C  0.35844935  0.59076887  0.70214146    -0.03700
C1526       C  0.36087891  0.59084421  0.73288743    -0.18800
H1527       H  0.32976616  0.56544732  0.89080431     0.10200
H1528       H  0.33035113  0.56018959  0.83745005     0.10300
H1529       H  0.41599312  0.63796617  0.83591057     0.10000
H1530       H  0.41508471  0.64354150  0.88902026     0.11100
H1531       H  0.35488173  0.57370381  0.79054966     0.11200
H1532       H  0.40473036  0.63756586  0.78952880     0.13100
H1533       H  0.42764499  0.65253444  0.74209763     0.09600
H1534       H  0.42336694  0.65250763  0.68861494     0.11700
H1535       H  0.33872520  0.57363235  0.69140089     0.08300
H1536       H  0.34269061  0.57388157  0.74460766     0.11000
C1537       C  0.10102523  0.71971304  0.89597105    -0.03600
C1538       C  0.07423591  0.71241315  0.88203836    -0.06200
C1539       C  0.07146752  0.71066391  0.85131466    -0.21200
C1540       C  0.09529511  0.71605300  0.83357501     0.24500
C1541       C  0.12207199  0.72290274  0.84748352    -0.18800
C1542       C  0.12480376  0.72451349  0.87832714    -0.08800
C1543       C  0.09153597  0.71606238  0.80091585    -0.19000
C1544       C  0.10988330  0.71471767  0.78115527    -0.23800
C1545       C  0.10747664  0.71676291  0.74849082     0.26500
C1546       C  0.12731711  0.71339885  0.73063118    -0.20600
C1547       C  0.12750543  0.71691751  0.70014292    -0.10300
C1548       C  0.10770005  0.72379425  0.68650803    -0.10800
C1549       C  0.08735817  0.72655887  0.70417698    -0.03700
C1550       C  0.08726634  0.72319985  0.73477960    -0.18800
H1551       H  0.05543173  0.70857172  0.89486179     0.10200
H1552       H  0.05063834  0.70549544  0.84133846     0.10300
H1553       H  0.14129859  0.72804533  0.83484389     0.10000
H1554       H  0.14586533  0.73055182  0.88829857     0.11100
H1555       H  0.07252973  0.71699018  0.79321448     0.11200
H1556       H  0.12783581  0.71202196  0.78909162     0.13100
H1557       H  0.14315650  0.70846817  0.74036773     0.09600
H1558       H  0.14347735  0.71454085  0.68730616     0.11700
H1559       H  0.07189561  0.73200860  0.69446617     0.08300
H1560       H  0.07168775  0.72634865  0.74732650     0.11000
C1561       C  0.10897966  0.88455880  0.68754151    -0.03600
C1562       C  0.13010734  0.91024228  0.70239352    -0.06200
C1563       C  0.13022470  0.91276844  0.73310485    -0.21200
C1564       C  0.10928089  0.88978600  0.74990420     0.24500
C1565       C  0.08774307  0.86419221  0.73505868    -0.18800
C1566       C  0.08757423  0.86169649  0.70423753    -0.08800
C1567       C  0.11227857  0.89286600  0.78268787    -0.19000
C1568       C  0.09124698  0.87557210  0.80156517    -0.23800
C1569       C  0.09527404  0.87714004  0.83432759     0.26500
C1570       C  0.07384469  0.85427417  0.85088711    -0.20600
C1571       C  0.07688707  0.85389823  0.88148033    -0.10300
C1572       C  0.10147646  0.87651329  0.89646696    -0.10800
C1573       C  0.12270232  0.89976034  0.88007280    -0.03700
C1574       C  0.11964177  0.90016880  0.84942100    -0.18800
H1575       H  0.14694228  0.92833467  0.69034664     0.10200
H1576       H  0.14713644  0.93268313  0.74384336     0.10300
H1577       H  0.07157113  0.84559343  0.74697324     0.10000
H1578       H  0.07111573  0.84149357  0.69357442     0.11100
H1579       H  0.13324319  0.90998620  0.79126169     0.11200
H1580       H  0.07016287  0.85874762  0.79282020     0.13100
H1581       H  0.05478320  0.83629871  0.84005111     0.09600
H1582       H  0.06003521  0.83561930  0.89331480     0.11700
H1583       H  0.14186537  0.91761793  0.89087599     0.08300
H1584       H  0.13647966  0.91867947  0.83799321     0.11000
C1585       C  0.26358560  0.88594635  0.68748329    -0.03600
C1586       C  0.26408763  0.90995116  0.70218463    -0.06200
C1587       C  0.26561595  0.91232216  0.73296352    -0.21200
C1588       C  0.26700399  0.89101501  0.74999751     0.24500
C1589       C  0.26725244  0.86731296  0.73531486    -0.18800
C1590       C  0.26563880  0.86489176  0.70443709    -0.08800
C1591       C  0.26644459  0.89369938  0.78279417    -0.19000
C1592       C  0.27407950  0.87914766  0.80186931    -0.23800
C1593       C  0.27194304  0.88067218  0.83461888     0.26500
C1594       C  0.27241826  0.85870851  0.85134983    -0.20600
C1595       C  0.26915271  0.85818639  0.88192977    -0.10300
C1596       C  0.26542854  0.87975773  0.89673054    -0.10800
C1597       C  0.26617827  0.90250637  0.88020864    -0.03700
C1598       C  0.26944161  0.90302208  0.84953985    -0.18800
H1599       H  0.26255189  0.92665044  0.68997699     0.10200
H1600       H  0.26530969  0.93076815  0.74354921     0.10300
H1601       H  0.26765394  0.84999699  0.74739202     0.10000
H1602       H  0.26523572  0.84608023  0.69390326     0.11100
H1603       H  0.25905276  0.90822218  0.79128804     0.11200
H1604       H  0.28149504  0.86465176  0.79333987     0.13100
H1605       H  0.27467663  0.84141649  0.84062542     0.09600
H1606       H  0.26897616  0.84045998  0.89387099     0.11700
H1607       H  0.26373145  0.91969753  0.89087938     0.08300
H1608       H  0.27000441  0.92100268  0.83784256     0.11000
C1609       C  0.75938541  0.38178491  0.15435369     0.79900
N1610       N  0.75625321  0.35743768  0.13989837    -0.78400
C1611       C  0.74977861  0.35328658  0.11044665     0.82300
N1612       N  0.74639078  0.37356264  0.09542957    -0.78400
C1613       C  0.75041670  0.39832569  0.10944379     0.82400
N1614       N  0.75697226  0.40233533  0.13874394    -0.80100
C1615       C  0.75925686  0.37779479  0.42880584     0.79900
N1616       N  0.75524715  0.39839547  0.44310410    -0.78400
C1617       C  0.74750426  0.39523059  0.47191456     0.82300
N1618       N  0.74382113  0.37140949  0.48662468    -0.78400
C1619       C  0.74871555  0.35123048  0.47286971     0.82400
N1620       N  0.75652747  0.35455810  0.44408720    -0.80100
C1621       C  0.60535542  0.37789269  0.42791582     0.79900
N1622       N  0.58493020  0.35444014  0.44287352    -0.78400
C1623       C  0.58909203  0.35121220  0.47187204     0.82300
N1624       N  0.61380135  0.37170429  0.48615066    -0.78400
C1625       C  0.63388583  0.39570081  0.47175861     0.82400
N1626       N  0.62961730  0.39875362  0.44271186    -0.80100
C1627       C  0.60981675  0.38238475  0.15379781     0.79900
N1628       N  0.58832942  0.35826748  0.13922028    -0.78400
C1629       C  0.59045019  0.35404321  0.10983751     0.82300
N1630       N  0.61416547  0.37404767  0.09494293    -0.78400
C1631       C  0.63521270  0.39860235  0.10908023     0.82400
N1632       N  0.63290288  0.40266538  0.13836095    -0.80100
C1633       C  0.61026794  0.22889907  0.15369638     0.79900
N1634       N  0.58881652  0.23176879  0.13984032    -0.78400
C1635       C  0.59096521  0.23836548  0.11069552     0.82300
N1636       N  0.61456469  0.24200776  0.09536774    -0.78400
C1637       C  0.63548626  0.23822565  0.10874373     0.82400
N1638       N  0.63319428  0.23161139  0.13774064    -0.80100
C1639       C  0.60462962  0.22378405  0.42714522     0.79900
N1640       N  0.58433932  0.22724218  0.44229846    -0.78400
C1641       C  0.58877572  0.23562120  0.47121875     0.82300
N1642       N  0.61366997  0.24040385  0.48528375    -0.78400
C1643       C  0.63365038  0.23598684  0.47073879     0.82400
N1644       N  0.62905661  0.22767119  0.44171046    -0.80100
C1645       C  0.87159175  0.10947671  0.42760782     0.79900
N1646       N  0.89278651  0.13387377  0.44203748    -0.78400
C1647       C  0.89016406  0.13853642  0.47117105     0.82300
N1648       N  0.86632908  0.11860425  0.48595680    -0.78400
C1649       C  0.84560174  0.09379689  0.47189698     0.82400
N1650       N  0.84836835  0.08934734  0.44288544    -0.80100
C1651       C  0.87431655  0.11621114  0.15518341     0.79900
N1652       N  0.89486125  0.13926177  0.13992224    -0.78400
C1653       C  0.89130253  0.14134661  0.11058087     0.82300
N1654       N  0.86702938  0.12009777  0.09627100    -0.78400
C1655       C  0.84682898  0.09643296  0.11105263     0.82400
N1656       N  0.85053704  0.09453796  0.14046174    -0.80100
C1657       C  0.87586095  0.26279461  0.15477952     0.79900
N1658       N  0.85132831  0.25891393  0.14048496    -0.78400
C1659       C  0.84699752  0.25146097  0.11127582     0.82300
N1660       N  0.86732308  0.24796323  0.09630284    -0.78400
C1661       C  0.89223586  0.25266283  0.11021585     0.82400
N1662       N  0.89641399  0.26013263  0.13930009    -0.80100
C1663       C  0.87263693  0.26202016  0.42746880     0.79900
N1664       N  0.89393417  0.25896297  0.44137140    -0.78400
C1665       C  0.89158164  0.25223868  0.47045587     0.82300
N1666       N  0.86793768  0.24864082  0.48565051    -0.78400
C1667       C  0.84710408  0.25248101  0.47215770     0.82400
N1668       N  0.84960744  0.25925602  0.44323042    -0.80100
C1669       C  0.72186991  0.10837137  0.42722543     0.79900
N1670       N  0.72615663  0.13326930  0.44135234    -0.78400
C1671       C  0.73476848  0.13849981  0.47023180     0.82300
N1672       N  0.73887949  0.11861534  0.48509811    -0.78400
C1673       C  0.73373947  0.09331547  0.47142072     0.82400
N1674       N  0.72520609  0.08829725  0.44263663    -0.80100
C1675       C  0.72443664  0.11444983  0.15464166     0.79900
N1676       N  0.72786668  0.09347859  0.14027621    -0.78400
C1677       C  0.73517042  0.09633025  0.11132294     0.82300
N1678       N  0.73895241  0.12018991  0.09662419    -0.78400
C1679       C  0.73476620  0.14078928  0.11049214     0.82400
N1680       N  0.72740092  0.13778172  0.13937173    -0.80100
O1681       O  0.76551528  0.31893606  0.10240762    -0.75600
O1682       O  0.72843245  0.31602920  0.07344928    -0.54600
C1683       C  0.74762452  0.32766355  0.09451551     0.78100
O1684       O  0.81364892  0.26848646  0.48134473    -0.60200
O1685       O  0.81090338  0.23024620  0.00874007    -0.53300
C1686       C  0.82273351  0.25090200  0.48888589     0.70100
O1687       O  0.76553174  0.31846864  0.48225849    -0.74800
O1688       O  0.72874814  0.31577629  0.00908461    -0.55400
C1689       C  0.74712365  0.32673831  0.48930067     0.76100
O1690       O  0.81277599  0.26714594  0.10371536    -0.60000
O1691       O  0.81099759  0.23111323  0.07345226    -0.53100
C1692       C  0.82175875  0.24951886  0.09530857     0.72700
Zr1693     Zr  0.77839310  0.28221173  0.08616150     2.54700
O1694       O  0.82515641  0.32781620  0.08517226    -0.80500
O1695       O  0.77744937  0.28149249  0.13982571    -0.93900
Zr1696     Zr  0.78008105  0.28325462  0.99874681     2.64700
O1697       O  0.82663624  0.32829240  0.00691576    -0.98900
O1698       O  0.78332487  0.28752978  0.44564038    -0.80900
O1699       O  0.76567893  0.29781101  0.04241091    -0.84300
O1700       O  0.79406545  0.26898275  0.04245228    -2.19000
O1701       O  0.71862725  0.17422832  0.10139398    -0.67700
O1702       O  0.75449732  0.17526311  0.07260128    -0.52300
C1703       C  0.73624645  0.16510557  0.09384583     0.71100
O1704       O  0.66798828  0.22053318  0.47899235    -0.60600
O1705       O  0.67169986  0.25901948  0.00728259    -0.52600
C1706       C  0.65916268  0.23844514  0.48680989     0.72900
O1707       O  0.71931837  0.17293045  0.47794603    -0.72000
O1708       O  0.75457786  0.17465520  0.00731211    -0.50700
C1709       C  0.73705228  0.16412830  0.48608680     0.74300
O1710       O  0.66776741  0.22102677  0.09853394    -0.67300
O1711       O  0.67132599  0.25909498  0.07187227    -0.54500
C1712       C  0.65970101  0.23960741  0.09183483     0.72600
Zr1713     Zr  0.70304301  0.20716736  0.08187482     2.77500
O1714       O  0.65905056  0.16040890  0.07080669    -0.98100
O1715       O  0.69516920  0.20166279  0.13474557    -0.78900
Zr1716     Zr  0.70480673  0.20848877  0.99448948     2.70100
O1717       O  0.65888623  0.16197352  0.99380783    -0.80100
O1718       O  0.70359256  0.20778500  0.44160157    -0.99200
Zr1719     Zr  0.71348292  0.27383671  0.04044850     2.21500
Zr1720     Zr  0.76939540  0.21662685  0.04042658     2.11100
O1721       O  0.71723819  0.19259800  0.03823379    -2.47900
O1722       O  0.68906169  0.22163079  0.03825782    -0.79900
O1723       O  0.75478350  0.23029770  0.08466366    -0.72100
O1724       O  0.72749769  0.25951026  0.49645031    -2.33100
O1725       O  0.72663778  0.25904729  0.08470569    -2.29300
O1726       O  0.75632798  0.23135829  0.49634290    -0.73900
H1727       H  0.81507913  0.27724493  0.04306533     0.78100
H1728       H  0.72138256  0.26578443  0.47925259     0.79200
H1729       H  0.70873462  0.17152772  0.03760492     0.81400
H1730       H  0.72017688  0.26518074  0.10188947     0.79000
H1731       H  0.76406567  0.27192189  0.43789353     0.42100
H1732       H  0.72329477  0.21167422  0.43585199     0.41000
H1733       H  0.64736119  0.16411257  0.00980816     0.40700
H1734       H  0.65487444  0.14950022  0.08937108     0.38600
H1735       H  0.71248871  0.21901954  0.14366384     0.41800
H1736       H  0.75733425  0.27680512  0.14486999     0.36600
H1737       H  0.82071885  0.34177617  0.07520135     0.42700
H1738       H  0.83244937  0.33653216  0.98702468     0.39100
H1739       H  0.64323521  0.16527022  0.06888328     0.44000
H1740       H  0.79005256  0.30223464  0.14625336     0.42700
H1741       H  0.81965006  0.34367051  0.51149888     0.42900
H1742       H  0.69022365  0.18706328  0.43556173     0.41700
O1743       O  0.53951340  0.31777136  0.48059129    -0.75600
O1744       O  0.57385666  0.31448694  0.00982455    -0.54600
C1745       C  0.56629149  0.32641268  0.48797944     0.78100
O1746       O  0.94194389  0.26886602  0.10191387    -0.60200
O1747       O  0.90723350  0.23233661  0.07222302    -0.53300
C1748       C  0.91522505  0.25108869  0.09373488     0.70100
O1749       O  0.54035437  0.32021195  0.10110757    -0.74800
O1750       O  0.57444787  0.31590970  0.07393163    -0.55400
C1751       C  0.56693596  0.32834902  0.09400013     0.76100
O1752       O  0.94159866  0.26812936  0.47823426    -0.60000
O1753       O  0.90693144  0.23064092  0.00715816    -0.53100
C1754       C  0.91515054  0.25060820  0.48614234     0.72700
Zr1755     Zr  0.98995520  0.28132376  0.99689665     2.54700
O1756       O  0.98862208  0.32683568  0.00075885    -0.80500
O1757       O  0.98872937  0.28371598  0.44330283    -0.93900
Zr1758     Zr  0.99110385  0.28381568  0.08444043     2.64700
O1759       O  0.98945640  0.32895662  0.07964036    -0.98900
O1760       O  0.99377951  0.28826770  0.13802242    -0.80900
O1761       O  0.51908901  0.29707622  0.04091862    -0.84300
O1762       O  0.96201994  0.26916756  0.04049934    -2.19000
O1763       O  0.94025920  0.17238190  0.47942406    -0.67700
O1764       O  0.90620748  0.17399451  0.00874361    -0.52300
C1765       C  0.91379054  0.16395488  0.48715333     0.71100
O1766       O  0.54083072  0.22211554  0.10281510    -0.60600
O1767       O  0.57457610  0.25878618  0.07448587    -0.52600
C1768       C  0.56729826  0.24005104  0.09517713     0.72900
O1769       O  0.94116008  0.17404058  0.10185423    -0.72000
O1770       O  0.90659967  0.17635092  0.07312269    -0.50700
C1771       C  0.91444434  0.16555166  0.09417852     0.74300
O1772       O  0.53918092  0.21954843  0.47996578    -0.67300
O1773       O  0.57398860  0.25717452  0.00991381    -0.54500
C1774       C  0.56595500  0.23786356  0.48747992     0.72600
Zr1775     Zr  0.98960023  0.20577069  0.99775238     2.77500
O1776       O  0.98746189  0.15888905  0.00385170    -0.98100
O1777       O  0.99004388  0.20393852  0.44407495    -0.78900
Zr1778     Zr  0.99071449  0.20840904  0.08532035     2.70100
O1779       O  0.99119082  0.16240616  0.08253183    -0.80100
O1780       O  0.99237461  0.21041995  0.13897799    -0.99200
Zr1781     Zr  0.54718310  0.27293244  0.04181953     2.21500
Zr1782     Zr  0.93403843  0.21688775  0.04053623     2.11100
O1783       O  0.96171335  0.19231631  0.04136506    -2.47900
O1784       O  0.51925294  0.22069126  0.04220809    -0.79900
O1785       O  0.96181693  0.23071686  0.49642910    -0.72100
O1786       O  0.51957629  0.26028194  0.08603227    -2.33100
O1787       O  0.51874122  0.25787871  0.49587534    -2.29300
O1788       O  0.96239948  0.23196698  0.08515494    -0.73900
H1789       H  0.94943873  0.27760708  0.04027655     0.78100
H1790       H  0.53224757  0.26712569  0.10329169     0.79200
H1791       H  0.94897042  0.17129911  0.04146487     0.81400
H1792       H  0.53095426  0.26369777  0.47874784     0.79000
H1793       H  0.49404542  0.27481049  0.14580810     0.42100
H1794       H  0.97785142  0.21627616  0.14456584     0.41000
H1795       H  0.51001414  0.16667154  0.07589594     0.40700
H1796       H  0.99619990  0.15611057  0.98570055     0.38600
H1797       H  0.99608830  0.22406371  0.43774372     0.41800
H1798       H  0.50932368  0.28080266  0.43692431     0.36600
H1799       H  0.50846674  0.34120459  0.00678046     0.42700
H1800       H  0.98981067  0.33572595  0.10021013     0.39100
H1801       H  0.00694818  0.16512277  0.51215960     0.44000
H1802       H  0.99468292  0.30427299  0.43878716     0.42700
H1803       H  0.00888174  0.34323337  0.07191310     0.42900
H1804       H  0.98347999  0.18971329  0.14487657     0.43200
O1805       O  0.76404704  0.44510275  0.48070615    -0.75600
O1806       O  0.72811003  0.41214148  0.00816101    -0.54600
C1807       C  0.74562855  0.41861765  0.48778138     0.78100
O1808       O  0.81340313  0.04605751  0.10277823    -0.60200
O1809       O  0.81046312  0.07956358  0.07370612    -0.53300
C1810       C  0.82184548  0.07249520  0.09493724     0.70100
O1811       O  0.76677609  0.44796569  0.10057660    -0.74800
O1812       O  0.72888917  0.41295401  0.07242868    -0.55400
C1813       C  0.74853239  0.42114363  0.09301937     0.76100
O1814       O  0.81232749  0.04422509  0.48010747    -0.60000
O1815       O  0.80927228  0.07835456  0.00887005    -0.53100
C1816       C  0.82118787  0.07097625  0.48813728     0.72700
Zr1817     Zr  0.77794811  0.49534985  0.99663692     2.54700
O1818       O  0.82528670  0.49779588  0.99966654    -0.80500
O1819       O  0.77862133  0.99501983  0.44290748    -0.93900
Zr1820     Zr  0.78001791  0.49695173  0.08418889     2.64700
O1821       O  0.82643967  0.49777985  0.07956678    -0.98900
O1822       O  0.78275325  0.99641036  0.13823572    -0.80900
O1823       O  0.76546251  0.46755651  0.04028843    -0.84300
O1824       O  0.79262579  0.02377727  0.04093933    -2.19000
O1825       O  0.71744948  0.04377430  0.48032334    -0.67700
O1826       O  0.75324535  0.07832691  0.00898826    -0.52300
C1827       C  0.73550497  0.07059926  0.48799921     0.71100
O1828       O  0.66846676  0.44806436  0.10035788    -0.60600
O1829       O  0.67144099  0.41306656  0.07254375    -0.52600
C1830       C  0.65992357  0.42127779  0.09283543     0.72900
O1831       O  0.71926914  0.04634053  0.10335795    -0.72000
O1832       O  0.75464438  0.07987923  0.07379212    -0.50700
C1833       C  0.73671854  0.07274107  0.09528829     0.74300
O1834       O  0.66762670  0.44559143  0.48051696    -0.67300
O1835       O  0.67040639  0.41155367  0.00893934    -0.54500
C1836       C  0.65906493  0.41909462  0.48803392     0.72600
Zr1837     Zr  0.70258454  0.49509730  0.99771534     2.77500
O1838       O  0.65733303  0.49635911  0.00363068    -0.98100
O1839       O  0.69798441  0.49340897  0.44477474    -0.78900
Zr1840     Zr  0.70492644  0.49705702  0.08528122     2.70100
O1841       O  0.65999901  0.49962774  0.08409517    -0.80100
O1842       O  0.70522016  0.49530938  0.13888832    -0.99200
Zr1843     Zr  0.71326161  0.43952795  0.04065886     2.21500
Zr1844     Zr  0.76828072  0.05173545  0.04137042     2.11100
O1845       O  0.71607481  0.02408245  0.04189826    -2.47900
O1846       O  0.68898716  0.46751658  0.04142890    -0.79900
O1847       O  0.75420565  0.02330832  0.49670647    -0.72100
O1848       O  0.72824534  0.46851464  0.08516176    -2.33100
O1849       O  0.72633460  0.46661017  0.49671295    -2.29300
O1850       O  0.75555009  0.02491793  0.08589019    -0.73900
H1851       H  0.81364791  0.03650281  0.04073961     0.78100
H1852       H  0.72231692  0.45630817  0.10228242     0.79200
H1853       H  0.70776356  0.03681996  0.04204292     0.81400
H1854       H  0.71971665  0.45384986  0.47940218     0.79000
H1855       H  0.76619438  0.49782440  0.14458416     0.42100
H1856       H  0.72085390  0.01038725  0.14630933     0.41000
H1857       H  0.64387185  0.47903830  0.08497396     0.40700
H1858       H  0.65167557  0.00105135  0.98692941     0.38600
H1859       H  0.71134126  0.98970362  0.43677604     0.41800
H1860       H  0.76164816  0.47646658  0.43676886     0.36600
H1861       H  0.82229056  0.48221652  0.01349410     0.42700
H1862       H  0.82046258  0.98056525  0.06467880     0.39100
H1863       H  0.64838139  0.49081088  0.48315880     0.44000
H1864       H  0.79584400  0.49077090  0.43862857     0.42700
H1865       H  0.83308643  0.49841112  0.10017253     0.42900
H1866       H  0.68980979  0.49972371  0.14503941     0.43200
C1867       C  0.71492126  0.10353576  0.39510022    -0.03600
C1868       C  0.71349730  0.07914939  0.38027744    -0.06200
C1869       C  0.70955405  0.07575269  0.34967888    -0.21200
C1870       C  0.70708235  0.09664781  0.33300182     0.24500
C1871       C  0.70710916  0.12036977  0.34794240    -0.18800
C1872       C  0.71108935  0.12379681  0.37862012    -0.08800
C1873       C  0.70501761  0.09295239  0.30022804    -0.19000
C1874       C  0.71185735  0.11512197  0.28164417    -0.23800
C1875       C  0.71236747  0.11241745  0.24890931     0.26500
C1876       C  0.71171208  0.13411919  0.23191602    -0.20600
C1877       C  0.71467480  0.13419793  0.20132552    -0.10300
C1878       C  0.71860395  0.11261865  0.18682510    -0.10800
C1879       C  0.71852860  0.09038293  0.20370756    -0.03700
C1880       C  0.71554631  0.09030405  0.23440647    -0.18800
H1881       H  0.71614904  0.06294495  0.39219103     0.10200
H1882       H  0.70926049  0.05708562  0.33889601     0.10300
H1883       H  0.70411667  0.13640395  0.33620007     0.10000
H1884       H  0.71160803  0.14258872  0.38934286     0.11100
H1885       H  0.69888845  0.07136578  0.29128722     0.11200
H1886       H  0.71801863  0.13671097  0.29056546     0.13100
H1887       H  0.70936360  0.15144520  0.24243394     0.09600
H1888       H  0.71451478  0.15163166  0.18914038     0.11700
H1889       H  0.72163150  0.07347701  0.19333547     0.08300
H1890       H  0.71687950  0.07353725  0.24661784     0.11000
C1891       C  0.88006327  0.26908208  0.18701401    -0.03600
C1892       C  0.90522169  0.27226413  0.20147540    -0.06200
C1893       C  0.90854206  0.27626921  0.23204140    -0.21200
C1894       C  0.88682832  0.27709705  0.24906418     0.24500
C1895       C  0.86208797  0.27501898  0.23450271    -0.18800
C1896       C  0.85873160  0.27093929  0.20384527    -0.08800
C1897       C  0.89084881  0.27946208  0.28176070    -0.19000
C1898       C  0.86929413  0.27384382  0.30088294    -0.23800
C1899       C  0.87260554  0.27331180  0.33343820     0.26500
C1900       C  0.85228303  0.27571785  0.35134570    -0.20600
C1901       C  0.85280801  0.27281533  0.38185723    -0.10300
C1902       C  0.87368051  0.26730298  0.39530552    -0.10800
C1903       C  0.89439801  0.26539447  0.37746502    -0.03700
C1904       C  0.89383897  0.26825895  0.34686433    -0.18800
H1905       H  0.92224279  0.27115295  0.18927177     0.10200
H1906       H  0.92794120  0.27806542  0.24250330     0.10300
H1907       H  0.84516289  0.27645683  0.24641351     0.10000
H1908       H  0.83922695  0.26889023  0.19340471     0.11100
H1909       H  0.91233749  0.28499201  0.29027765     0.11200
H1910       H  0.84786786  0.26876934  0.29271527     0.13100
H1911       H  0.83560137  0.27943291  0.34162580     0.09600
H1912       H  0.83647976  0.27443601  0.39483222     0.11700
H1913       H  0.91055937  0.26084591  0.38702493     0.08300
H1914       H  0.90937448  0.26536617  0.33388285     0.11000
C1915       C  0.87294933  0.10515960  0.39537982    -0.03600
C1916       C  0.84958587  0.08112377  0.38040676    -0.06200
C1917       C  0.84971652  0.07801831  0.34979046    -0.21200
C1918       C  0.87306280  0.09886448  0.33333474     0.24500
C1919       C  0.89703124  0.12229788  0.34838265    -0.18800
C1920       C  0.89687427  0.12546053  0.37904507    -0.08800
C1921       C  0.87131242  0.09542869  0.30064588    -0.19000
C1922       C  0.88616506  0.11795308  0.28244174    -0.23800
C1923       C  0.88307027  0.11548910  0.24976264     0.26500
C1924       C  0.90515134  0.13763022  0.23315057    -0.20600
C1925       C  0.90254636  0.13750657  0.20250160    -0.10300
C1926       C  0.87762497  0.11524641  0.18761761    -0.10800
C1927       C  0.85554804  0.09286268  0.20419720    -0.03700
C1928       C  0.85817371  0.09298548  0.23493992    -0.18800
H1929       H  0.83082377  0.06492357  0.39223333     0.10200
H1930       H  0.83113005  0.05960078  0.33884472     0.10300
H1931       H  0.91602576  0.13823531  0.33672947     0.10000
H1932       H  0.91539549  0.14399752  0.38989102     0.11100
H1933       H  0.85625663  0.07378862  0.29149345     0.11200
H1934       H  0.90110994  0.13958961  0.29165718     0.13100
H1935       H  0.92445160  0.15531718  0.24397844     0.09600
H1936       H  0.91997938  0.15515467  0.19053798     0.11700
H1937       H  0.83592023  0.07553207  0.19350785     0.08300
H1938       H  0.84021791  0.07595441  0.24688610     0.11000
C1939       C  0.60074867  0.21749746  0.39476463    -0.03600
C1940       C  0.57548785  0.21374939  0.37998489    -0.06200
C1941       C  0.57277560  0.21043434  0.34927646    -0.21200
C1942       C  0.59527411  0.21103303  0.33238850     0.24500
C1943       C  0.62012542  0.21364842  0.34717989    -0.18800
C1944       C  0.62280248  0.21685431  0.37799443    -0.08800
C1945       C  0.59185290  0.20915043  0.29958059    -0.19000
C1946       C  0.61448688  0.21894803  0.28090414    -0.23800
C1947       C  0.61132308  0.21921275  0.24822142     0.26500
C1948       C  0.63327018  0.21960882  0.23058246    -0.20600
C1949       C  0.63239529  0.22186055  0.19996199    -0.10300
C1950       C  0.60965065  0.22414755  0.18606934    -0.10800
C1951       C  0.58744053  0.22344150  0.20369333    -0.03700
C1952       C  0.58825502  0.22103452  0.23441029    -0.18800
H1953       H  0.55793430  0.21394694  0.39206694     0.10200
H1954       H  0.55326598  0.20815807  0.33859244     0.10300
H1955       H  0.63756968  0.21321860  0.33519041     0.10000
H1956       H  0.64243967  0.21939292  0.38860019     0.11100
H1957       H  0.56982937  0.20048473  0.29063068     0.11200
H1958       H  0.63654835  0.22752178  0.28965701     0.13100
H1959       H  0.65138342  0.21843847  0.24058692     0.09600
H1960       H  0.64996117  0.22237520  0.18725675     0.11700
H1961       H  0.56974958  0.22543077  0.19385158     0.08300
H1962       H  0.57134840  0.22166065  0.24724506     0.11000
C1963       C  0.60913308  0.38595537  0.18641518    -0.03600
C1964       C  0.63174569  0.41079094  0.20118746    -0.06200
C1965       C  0.63267067  0.41320420  0.23197529    -0.21200
C1966       C  0.61092840  0.39109525  0.24894460     0.24500
C1967       C  0.58788470  0.36646339  0.23423860    -0.18800
C1968       C  0.58700889  0.36397903  0.20334724    -0.08800
C1969       C  0.61431425  0.39385106  0.28174819    -0.19000
C1970       C  0.59206625  0.37970588  0.30058652    -0.23800
C1971       C  0.59578490  0.38113674  0.33339138     0.26500
C1972       C  0.57357005  0.35896402  0.34991645    -0.20600
C1973       C  0.57642829  0.35831868  0.38052879    -0.10300
C1974       C  0.60156688  0.38002549  0.39561717    -0.10800
C1975       C  0.62338094  0.40295953  0.37927378    -0.03700
C1976       C  0.62053076  0.40357320  0.34854947    -0.18800
H1977       H  0.64919240  0.42821297  0.18901763     0.10200
H1978       H  0.65071894  0.43235824  0.24262953     0.10300
H1979       H  0.57105510  0.34854657  0.24640405     0.10000
H1980       H  0.56937370  0.34444908  0.19279563     0.11100
H1981       H  0.63628940  0.40811599  0.29044120     0.11200
H1982       H  0.57010968  0.36554911  0.29174036     0.13100
H1983       H  0.55410991  0.34159647  0.33900108     0.09600
H1984       H  0.55903644  0.34043601  0.39229334     0.11700
H1985       H  0.64290216  0.42026890  0.39013951     0.08300
H1986       H  0.63774761  0.42169716  0.33696192     0.11000
C1987       C  0.76381481  0.38545642  0.18700916    -0.03600
C1988       C  0.76682397  0.41072528  0.20143621    -0.06200
C1989       C  0.76855763  0.41343590  0.23220746    -0.21200
C1990       C  0.76756151  0.39114488  0.24956562     0.24500
C1991       C  0.76512946  0.36602341  0.23520482    -0.18800
C1992       C  0.76334892  0.36327929  0.20430671    -0.08800
C1993       C  0.76714572  0.39429538  0.28235557    -0.19000
C1994       C  0.77368790  0.37903723  0.30161709    -0.23800
C1995       C  0.77139462  0.38057522  0.33438919     0.26500
C1996       C  0.77126552  0.35829372  0.35110645    -0.20600
C1997       C  0.76811570  0.35783985  0.38170901    -0.10300
C1998       C  0.76509926  0.37979583  0.39659646    -0.10800
C1999       C  0.76618292  0.40271555  0.38006947    -0.03700
C2000       C  0.76930898  0.40315181  0.34935781    -0.18800
H2001       H  0.76725683  0.42830987  0.18899460     0.10200
H2002       H  0.77030115  0.43296590  0.24253494     0.10300
H2003       H  0.76351903  0.34793179  0.24760231     0.10000
H2004       H  0.76082152  0.34341118  0.19403439     0.11100
H2005       H  0.76082423  0.40973361  0.29063117     0.11200
H2006       H  0.78029209  0.36387062  0.29313378     0.13100
H2007       H  0.77305193  0.34073679  0.34035341     0.09600
H2008       H  0.76751660  0.33989161  0.39360825     0.11700
H2009       H  0.76417962  0.42015512  0.39078428     0.08300
H2010       H  0.77013740  0.42126436  0.33768021     0.11000
C2011       C  0.75770917  0.38059108  0.65473532     0.79900
N2012       N  0.75463019  0.35630023  0.64025797    -0.78400
C2013       C  0.74850154  0.35236103  0.61076472     0.82300
N2014       N  0.74548730  0.37280793  0.59569349    -0.78400
C2015       C  0.74953642  0.39754155  0.60975135     0.82400
N2016       N  0.75568239  0.40134158  0.63912129    -0.80100
C2017       C  0.75957648  0.37773387  0.92848961     0.79900
N2018       N  0.75639894  0.39882317  0.94295721    -0.78400
C2019       C  0.74945543  0.39612045  0.97203015     0.82300
N2020       N  0.74582639  0.37231648  0.98674014    -0.78400
C2021       C  0.74990814  0.35169921  0.97274066     0.82400
N2022       N  0.75679243  0.35450468  0.94375733    -0.80100
C2023       C  0.60471907  0.37621268  0.92855205     0.79900
N2024       N  0.58450453  0.35281227  0.94369149    -0.78400
C2025       C  0.58855595  0.35014514  0.97284696     0.82300
N2026       N  0.61300529  0.37115873  0.98712854    -0.78400
C2027       C  0.63292165  0.39513551  0.97252813     0.82400
N2028       N  0.62869667  0.39760789  0.94331268    -0.80100
C2029       C  0.60989328  0.38180125  0.65400080     0.79900
N2030       N  0.58867437  0.35759447  0.63928167    -0.78400
C2031       C  0.59122807  0.35335378  0.60998488     0.82300
N2032       N  0.61509292  0.37340761  0.59535607    -0.78400
C2033       C  0.63580960  0.39807108  0.60960010     0.82400
N2034       N  0.63307483  0.40218409  0.63876392    -0.80100
C2035       C  0.60852134  0.22824678  0.65301699     0.79900
N2036       N  0.58801480  0.23218039  0.63866802    -0.78400
C2037       C  0.59117624  0.23938496  0.60972086     0.82300
N2038       N  0.61489857  0.24260062  0.59500436    -0.78400
C2039       C  0.63498252  0.23783747  0.60885214     0.82400
N2040       N  0.63168602  0.23059977  0.63772459    -0.80100
C2041       C  0.60539168  0.22711029  0.92721432     0.79900
N2042       N  0.58468243  0.22893981  0.94334365    -0.78400
C2043       C  0.58885560  0.23562276  0.97264407     0.82300
N2044       N  0.61393666  0.24030349  0.98615428    -0.78400
C2045       C  0.63438676  0.23746080  0.97063020     0.82400
N2046       N  0.63010756  0.23091591  0.94115793    -0.80100
C2047       C  0.87127067  0.10871745  0.92759851     0.79900
N2048       N  0.89264278  0.13265716  0.94243747    -0.78400
C2049       C  0.88988652  0.13704073  0.97159627     0.82300
N2050       N  0.86568588  0.11728683  0.98605069    -0.78400
C2051       C  0.84470663  0.09284689  0.97167336     0.82400
N2052       N  0.84763340  0.08865005  0.94257046    -0.80100
C2053       C  0.87638773  0.11577100  0.65467208     0.79900
N2054       N  0.89652536  0.13930688  0.63966088    -0.78400
C2055       C  0.89237268  0.14217030  0.61061138     0.82300
N2056       N  0.86789660  0.12120537  0.59631969    -0.78400
C2057       C  0.84800759  0.09713299  0.61083451     0.82400
N2058       N  0.85235933  0.09446015  0.63994153    -0.80100
C2059       C  0.87730225  0.26520510  0.65457318     0.79900
N2060       N  0.85256452  0.26108123  0.64049079    -0.78400
C2061       C  0.84760579  0.25262289  0.61151655     0.82300
N2062       N  0.86753711  0.24840984  0.59660022    -0.78400
C2063       C  0.89263579  0.25334732  0.61030965     0.82400
N2064       N  0.89738380  0.26176701  0.63911859    -0.80100
C2065       C  0.87195833  0.25990793  0.92678139     0.79900
N2066       N  0.89327261  0.25703355  0.94088680    -0.78400
C2067       C  0.89065860  0.25008579  0.96991621     0.82300
N2068       N  0.86676999  0.24620173  0.98487288    -0.78400
C2069       C  0.84594994  0.24996629  0.97120395     0.82400
N2070       N  0.84869638  0.25687787  0.94231935    -0.80100
C2071       C  0.72118706  0.10811471  0.92668047     0.79900
N2072       N  0.72543166  0.13301283  0.94075699    -0.78400
C2073       C  0.73371996  0.13811090  0.96971267     0.82300
N2074       N  0.73766858  0.11815666  0.98465936    -0.78400
C2075       C  0.73254883  0.09283991  0.97104023     0.82400
N2076       N  0.72423729  0.08790887  0.94218927    -0.80100
C2077       C  0.72654061  0.11526742  0.65426928     0.79900
N2078       N  0.72920425  0.09393571  0.63974270    -0.78400
C2079       C  0.73591202  0.09652888  0.61067805     0.82300
N2080       N  0.73991254  0.12051763  0.59604850    -0.78400
C2081       C  0.73644871  0.14146204  0.61019613     0.82400
N2082       N  0.72968232  0.13870208  0.63916569    -0.80100
O2083       O  0.76457640  0.31839784  0.60279211    -0.75600
O2084       O  0.72739266  0.31519224  0.57375820    -0.54600
C2085       C  0.74653063  0.32689222  0.59485496     0.78100
O2086       O  0.81320632  0.26692933  0.98064760    -0.60200
O2087       O  0.81214483  0.23235688  0.50975078    -0.53300
C2088       C  0.82171419  0.24879036  0.98791247     0.70100
O2089       O  0.76652612  0.31872565  0.98202309    -0.74800
O2090       O  0.72770666  0.31522854  0.50942334    -0.55400
C2091       C  0.74821655  0.32715699  0.98903989     0.76100
O2092       O  0.81311041  0.26800961  0.60377788    -0.60000
O2093       O  0.81117073  0.23157754  0.57407487    -0.53100
C2094       C  0.82211291  0.25032397  0.59564048     0.72700
Zr2095     Zr  0.77799092  0.28221697  0.58639296     2.54700
O2096       O  0.82467175  0.32774658  0.58423128    -0.80500
O2097       O  0.77810150  0.28213315  0.64008070    -0.93900
Zr2098     Zr  0.77928029  0.28320648  0.49896364     2.64700
O2099       O  0.82538990  0.32870894  0.50737851    -0.98900
O2100       O  0.78546756  0.28917385  0.94565442    -0.80900
O2101       O  0.76484040  0.29754568  0.54269193    -0.84300
O2102       O  0.79374592  0.26936463  0.54261913    -2.19000
O2103       O  0.71992959  0.17462995  0.60153128    -0.67700
O2104       O  0.75584887  0.17600067  0.57254311    -0.52300
C2105       C  0.73771025  0.16573634  0.59380668     0.71100
O2106       O  0.66854078  0.22159841  0.97822225    -0.60600
O2107       O  0.67061354  0.25782948  0.50783392    -0.52600
C2108       C  0.66003370  0.23972094  0.98620795     0.72900
O2109       O  0.71901414  0.17322280  0.97703596    -0.72000
O2110       O  0.75572490  0.17535665  0.50760167    -0.50700
C2111       C  0.73622316  0.16387194  0.98549415     0.74300
O2112       O  0.66770447  0.22078923  0.59942481    -0.67300
O2113       O  0.67077325  0.25832245  0.57219174    -0.54500
C2114       C  0.65938702  0.23912384  0.59240149     0.72600
Zr2115     Zr  0.70300459  0.20681950  0.58259383     2.77500
O2116       O  0.65840159  0.15989686  0.57396358    -0.98100
O2117       O  0.69521211  0.20096858  0.63543858    -0.78900
Zr2118     Zr  0.70444409  0.20769182  0.49527317     2.70100
O2119       O  0.65918439  0.16068737  0.49685996    -0.80100
O2120       O  0.70719033  0.21176858  0.94102322    -0.99200
Zr2121     Zr  0.71269403  0.27310488  0.54073316     2.21500
Zr2122     Zr  0.76978622  0.21716919  0.54072143     2.11100
O2123       O  0.71747685  0.19237664  0.53897681    -2.47900
O2124       O  0.68858753  0.22082200  0.53891055    -0.79900
O2125       O  0.75483041  0.23039060  0.58507081    -0.72100
O2126       O  0.72831688  0.26026508  0.99612619    -2.33100
O2127       O  0.72617884  0.25867457  0.58512263    -2.29300
O2128       O  0.75656741  0.23140719  0.99606467    -0.73900
H2129       H  0.81479376  0.27790903  0.54321633     0.78100
H2130       H  0.72236927  0.26669373  0.97892706     0.79200
H2131       H  0.70925478  0.17133909  0.53843843     0.81400
H2132       H  0.71971606  0.26479663  0.60231296     0.79000
H2133       H  0.76850174  0.27123352  0.93714044     0.42100
H2134       H  0.72781490  0.21795431  0.93651736     0.41000
H2135       H  0.64581694  0.16470376  0.50871645     0.40700
H2136       H  0.65585655  0.14910151  0.59238550     0.38600
H2137       H  0.70991371  0.22016994  0.64421679     0.41800
H2138       H  0.75816287  0.27772973  0.64552143     0.36600
H2139       H  0.81976249  0.34198946  0.57571231     0.42700
H2140       H  0.83446445  0.33365221  0.48773146     0.39100
H2141       H  0.64242660  0.16463678  0.57408103     0.44000
H2142       H  0.79100610  0.30291668  0.64620523     0.42700
H2143       H  0.82141459  0.34172434  0.01724150     0.42900
H2144       H  0.69588472  0.19120350  0.93362268     0.41700
O2145       O  0.53903217  0.31644366  0.98119217    -0.75600
O2146       O  0.57443618  0.31510808  0.50832422    -0.54600
C2147       C  0.56577269  0.32540994  0.98902971     0.78100
O2148       O  0.94224058  0.26897299  0.60215567    -0.60200
O2149       O  0.90742065  0.23312811  0.57200664    -0.53300
C2150       C  0.91548459  0.25154341  0.59379662     0.70100
O2151       O  0.54115220  0.31978778  0.60118947    -0.74800
O2152       O  0.57501990  0.31618911  0.57290565    -0.55400
C2153       C  0.56766611  0.32804757  0.59374385     0.76100
O2154       O  0.94077620  0.26631939  0.97806289    -0.60000
O2155       O  0.90780446  0.23249946  0.50742033    -0.53100
C2156       C  0.91427984  0.24868073  0.98583279     0.72700
Zr2157     Zr  0.99057968  0.28260915  0.49690817     2.54700
O2158       O  0.99048236  0.32860112  0.50321286    -0.80500
O2159       O  0.99066276  0.28223029  0.94325174    -0.93900
Zr2160     Zr  0.99156810  0.28491660  0.58431673     2.64700
O2161       O  0.99004461  0.33004339  0.57860383    -0.98900
O2162       O  0.99408742  0.29225076  0.63761281    -0.80900
O2163       O  0.51955237  0.29768388  0.53975412    -0.84300
O2164       O  0.96252330  0.27031927  0.54043740    -2.19000
O2165       O  0.93999322  0.17080676  0.98002314    -0.67700
O2166       O  0.90656106  0.17556995  0.50826251    -0.52300
C2167       C  0.91350147  0.16232021  0.98774883     0.71100
O2168       O  0.54138143  0.22333970  0.60142157    -0.60600
O2169       O  0.57523684  0.25948426  0.57267449    -0.52600
C2170       C  0.56784640  0.24108096  0.59369072     0.72900
O2171       O  0.94201341  0.17569970  0.60246868    -0.72000
O2172       O  0.90743199  0.17706435  0.57293416    -0.50700
C2173       C  0.91532478  0.16667622  0.59435870     0.74300
O2174       O  0.53922372  0.21858478  0.98220306    -0.67300
O2175       O  0.57408656  0.25762139  0.50811637    -0.54500
C2176       C  0.56596514  0.23722013  0.98948596     0.72600
Zr2177     Zr  0.98979208  0.20687656  0.49765049     2.77500
O2178       O  0.98792671  0.16004476  0.50276281    -0.98100
O2179       O  0.98956501  0.20162457  0.94424655    -0.78900
Zr2180     Zr  0.99129104  0.20972857  0.58555798     2.70100
O2181       O  0.99034306  0.16303448  0.58501856    -0.80100
O2182       O  0.99343891  0.21279775  0.63926053    -0.99200
Zr2183     Zr  0.54767100  0.27357903  0.54024423     2.21500
Zr2184     Zr  0.93454467  0.21802170  0.54056979     2.11100
O2185       O  0.96224059  0.19345870  0.54150463    -2.47900
O2186       O  0.51976652  0.22132523  0.54066844    -0.79900
O2187       O  0.96136689  0.22942701  0.99636801    -0.72100
O2188       O  0.52026113  0.26077510  0.58449790    -2.33100
O2189       O  0.51845411  0.25735207  0.99733249    -2.29300
O2190       O  0.96281665  0.23312572  0.58533253    -0.73900
H2191       H  0.94994887  0.27877602  0.54026925     0.78100
H2192       H  0.53298060  0.26748351  0.60171819     0.79200
H2193       H  0.94953300  0.17246388  0.54162656     0.81400
H2194       H  0.53078414  0.26315158  0.98029258     0.79000
H2195       H  0.49708788  0.27160998  0.64345341     0.42100
H2196       H  0.97969872  0.21971029  0.64471259     0.41000
H2197       H  0.48112448  0.15189198  0.59864131     0.40700
H2198       H  0.98933298  0.15402164  0.48232920     0.38600
H2199       H  0.98768479  0.21834228  0.93726420     0.41800
H2200       H  0.50531392  0.27742043  0.93737701     0.36600
H2201       H  0.49900919  0.33720708  0.47990000     0.42700
H2202       H  0.98922912  0.33649289  0.59903052     0.39100
H2203       H  0.00208828  0.16266833  0.01962542     0.44000
H2204       H  0.99882985  0.30314137  0.93842852     0.42700
H2205       H  0.00988091  0.34449083  0.57192208     0.42900
H2206       H  0.98371638  0.19217695  0.64561895     0.43200
O2207       O  0.76551229  0.44601084  0.98061067    -0.75600
O2208       O  0.72639964  0.41123266  0.50804163    -0.54600
C2209       C  0.74741813  0.41953142  0.98790425     0.78100
O2210       O  0.81429987  0.04688905  0.60250578    -0.60200
O2211       O  0.81157839  0.08042525  0.57336681    -0.53300
C2212       C  0.82288772  0.07334310  0.59465551     0.70100
O2213       O  0.76643292  0.44724115  0.60105815    -0.74800
O2214       O  0.72868690  0.41254423  0.57251945    -0.55400
C2215       C  0.74809481  0.42051829  0.59330997     0.76100
O2216       O  0.81115069  0.04323709  0.98022578    -0.60000
O2217       O  0.81050666  0.07905050  0.50928249    -0.53100
C2218       C  0.82000220  0.07009167  0.98788370     0.72700
Zr2219     Zr  0.77813185  0.49492265  0.49696137     2.54700
O2220       O  0.82509239  0.49663586  0.50117125    -0.80500
O2221       O  0.77827579  0.99466125  0.94358815    -0.93900
Zr2222     Zr  0.78031550  0.49619281  0.58422116     2.64700
O2223       O  0.82625115  0.49683784  0.57596400    -0.98900
O2224       O  0.78934170  0.99791084  0.63684672    -0.80900
O2225       O  0.76537214  0.46677202  0.54038494    -0.84300
O2226       O  0.79407309  0.02457579  0.54038825    -2.19000
O2227       O  0.71636097  0.04329526  0.97994746    -0.67700
O2228       O  0.75451941  0.07884571  0.50914880    -0.52300
C2229       C  0.73433051  0.07011298  0.98769594     0.71100
O2230       O  0.66941343  0.44761559  0.60143508    -0.60600
O2231       O  0.67145373  0.41266777  0.57262716    -0.52600
C2232       C  0.66047923  0.42083618  0.59346491     0.72900
O2233       O  0.71956736  0.04642008  0.60262328    -0.72000
O2234       O  0.75552138  0.08001088  0.57356588    -0.50700
C2235       C  0.73724939  0.07284050  0.59470973     0.74300
O2236       O  0.66653502  0.44530341  0.98112340    -0.67300
O2237       O  0.67054257  0.41168774  0.50891457    -0.54500
C2238       C  0.65829325  0.41880418  0.98853410     0.72600
Zr2239     Zr  0.70291847  0.49497284  0.49823304     2.77500
O2240       O  0.65681181  0.49466836  0.50340336    -0.98100
O2241       O  0.69754101  0.49373837  0.94428602    -0.78900
Zr2242     Zr  0.70533737  0.49670700  0.58588399     2.70100
O2243       O  0.65951586  0.49737955  0.58311528    -0.80100
O2244       O  0.70498972  0.49545480  0.63955111    -0.99200
Zr2245     Zr  0.71316471  0.43929006  0.54093204     2.21500
Zr2246     Zr  0.76931057  0.05207109  0.54123276     2.11100
O2247       O  0.71707859  0.02421041  0.54171398    -2.47900
O2248       O  0.68905202  0.46734254  0.54192489    -0.79900
O2249       O  0.75318046  0.02272608  0.99708281    -0.72100
O2250       O  0.72852029  0.46808442  0.58549306    -2.33100
O2251       O  0.72612110  0.46674065  0.99633818    -2.29300
O2252       O  0.75672946  0.02522599  0.58565034    -0.73900
H2253       H  0.81509371  0.03734596  0.54024023     0.78100
H2254       H  0.72261056  0.45585574  0.60259542     0.79200
H2255       H  0.70871371  0.03690308  0.54192105     0.81400
H2256       H  0.71951072  0.45384959  0.97911828     0.79000
H2257       H  0.77098077  0.50061664  0.64535599     0.42100
H2258       H  0.72434515  0.01008099  0.64540247     0.41000
H2259       H  0.65474979  0.49577123  0.56179657     0.40700
H2260       H  0.66257808  0.01582803  0.50786835     0.38600
H2261       H  0.71436177  0.99539414  0.93729863     0.41800
H2262       H  0.75852299  0.47676029  0.93706761     0.36600
H2263       H  0.82003129  0.47617259  0.50492559     0.42700
H2264       H  0.84143228  0.01548692  0.58510650     0.39100
H2265       H  0.64660671  0.48184719  0.01899046     0.44000
H2266       H  0.79218661  0.48763301  0.93777031     0.42700
H2267       H  0.82046466  0.47606189  0.57203076     0.42900
H2268       H  0.69492552  0.50625285  0.64571664     0.43200
C2269       C  0.71544210  0.10383039  0.89438556    -0.03600
C2270       C  0.71477769  0.07978978  0.87961832    -0.06200
C2271       C  0.71274676  0.07729007  0.84891167    -0.21200
C2272       C  0.71126436  0.09864945  0.83213695     0.24500
C2273       C  0.71049227  0.12202081  0.84690529    -0.18800
C2274       C  0.71265854  0.12460197  0.87769478    -0.08800
C2275       C  0.71036709  0.09542297  0.79946550    -0.19000
C2276       C  0.71738053  0.11770761  0.78108553    -0.23800
C2277       C  0.71738526  0.11477212  0.74847272     0.26500
C2278       C  0.71579713  0.13597854  0.73153492    -0.20600
C2279       C  0.71771207  0.13548099  0.70091005    -0.10300
C2280       C  0.72153705  0.11383781  0.68643853    -0.10800
C2281       C  0.72239581  0.09209531  0.70328593    -0.03700
C2282       C  0.72047420  0.09259894  0.73400621    -0.18800
H2283       H  0.71667215  0.06322740  0.89169479     0.10200
H2284       H  0.71301825  0.05888569  0.83817954     0.10300
H2285       H  0.70817757  0.13837073  0.83497811     0.10000
H2286       H  0.71267236  0.14316778  0.88835699     0.11100
H2287       H  0.70431236  0.07388438  0.79044740     0.11200
H2288       H  0.72346055  0.13927389  0.79001467     0.13100
H2289       H  0.71343614  0.15328216  0.74209062     0.09600
H2290       H  0.71682564  0.15251028  0.68866163     0.11700
H2291       H  0.72548785  0.07520284  0.69285906     0.08300
H2292       H  0.72253427  0.07623887  0.74620919     0.11000
C2293       C  0.88209871  0.27210897  0.68667255    -0.03600
C2294       C  0.90726576  0.27495435  0.70085527    -0.06200
C2295       C  0.91067638  0.27846287  0.73144951    -0.21200
C2296       C  0.88905236  0.27914190  0.74870912     0.24500
C2297       C  0.86462204  0.27799165  0.73443273    -0.18800
C2298       C  0.86114167  0.27437028  0.70375169    -0.08800
C2299       C  0.89275087  0.28063646  0.78137880    -0.19000
C2300       C  0.87020716  0.27166272  0.80001114    -0.23800
C2301       C  0.87281833  0.27100281  0.83265719     0.26500
C2302       C  0.84912175  0.26750581  0.84951714    -0.20600
C2303       C  0.84929688  0.26475160  0.88003502    -0.10300
C2304       C  0.87316041  0.26516700  0.89460997    -0.10800
C2305       C  0.89720641  0.26918567  0.87787496    -0.03700
C2306       C  0.89707145  0.27204830  0.84721702    -0.18800
H2307       H  0.92409453  0.27369551  0.68843494     0.10200
H2308       H  0.92992391  0.27976688  0.74174559     0.10300
H2309       H  0.84805201  0.27976567  0.74671739     0.10000
H2310       H  0.84175637  0.27278379  0.69351370     0.11100
H2311       H  0.91466084  0.28819021  0.79003948     0.11200
H2312       H  0.84831712  0.26379451  0.79110804     0.13100
H2313       H  0.83012120  0.26651666  0.83896743     0.09600
H2314       H  0.83032128  0.26164282  0.89208768     0.11700
H2315       H  0.91590414  0.26953048  0.88836483     0.08300
H2316       H  0.91558902  0.27410136  0.83515470     0.11000
C2317       C  0.87308998  0.10485329  0.89527165    -0.03600
C2318       C  0.85084332  0.08005442  0.88014825    -0.06200
C2319       C  0.85157586  0.07696464  0.84955665    -0.21200
C2320       C  0.87437930  0.09862121  0.83317249     0.24500
C2321       C  0.89713923  0.12311850  0.84833989    -0.18800
C2322       C  0.89641311  0.12621888  0.87900215    -0.08800
C2323       C  0.87336315  0.09473691  0.80046254    -0.19000
C2324       C  0.88767398  0.11713199  0.78195838    -0.23800
C2325       C  0.88530544  0.11417628  0.74920511     0.26500
C2326       C  0.90707091  0.13679202  0.73274517    -0.20600
C2327       C  0.90466044  0.13672906  0.70206931    -0.10300
C2328       C  0.88018224  0.11409908  0.68696712    -0.10800
C2329       C  0.85873198  0.09090808  0.70332280    -0.03700
C2330       C  0.86120855  0.09092801  0.73411327    -0.18800
H2331       H  0.83256956  0.06307445  0.89187908     0.10200
H2332       H  0.83388763  0.05777472  0.83856517     0.10300
H2333       H  0.91569111  0.13988582  0.83681865     0.10000
H2334       H  0.91404500  0.14550525  0.88989852     0.11100
H2335       H  0.85935400  0.07275342  0.79148372     0.11200
H2336       H  0.90156395  0.13910940  0.79096210     0.13100
H2337       H  0.92583787  0.15496269  0.74374645     0.09600
H2338       H  0.92170463  0.15490735  0.69029661     0.11700
H2339       H  0.83955737  0.07313758  0.69244700     0.08300
H2340       H  0.84361225  0.07334332  0.74590788     0.11000
C2341       C  0.60143379  0.22265526  0.89456393    -0.03600
C2342       C  0.57523784  0.21775014  0.88088822    -0.06200
C2343       C  0.57214454  0.21621599  0.85015699    -0.21200
C2344       C  0.59493877  0.21917404  0.83211569     0.24500
C2345       C  0.62105212  0.22359133  0.84569420    -0.18800
C2346       C  0.62418657  0.22518960  0.87654258    -0.08800
C2347       C  0.59117035  0.21928200  0.79944582    -0.19000
C2348       C  0.60647645  0.21292665  0.77986102    -0.23800
C2349       C  0.60478458  0.21500864  0.74713875     0.26500
C2350       C  0.62687692  0.21477298  0.73021414    -0.20600
C2351       C  0.62769337  0.21843667  0.69973162    -0.10300
C2352       C  0.60621868  0.22221413  0.68513986    -0.10800
C2353       C  0.58333047  0.22125609  0.70181216    -0.03700
C2354       C  0.58256065  0.21766618  0.73244474    -0.18800
H2355       H  0.55717603  0.21565853  0.89391487     0.10200
H2356       H  0.55186847  0.21295977  0.84041278     0.10300
H2357       H  0.63952850  0.22686140  0.83269487     0.10000
H2358       H  0.64476980  0.22926677  0.88621858     0.11100
H2359       H  0.57518523  0.22494282  0.79161376     0.11200
H2360       H  0.62194285  0.20672156  0.78811808     0.13100
H2361       H  0.64410399  0.21244538  0.74073801     0.09600
H2362       H  0.64554842  0.21880565  0.68770280     0.11700
H2363       H  0.56621177  0.22374498  0.69128554     0.08300
H2364       H  0.56457500  0.21709959  0.74428844     0.11000
C2365       C  0.60896617  0.38526422  0.68660415    -0.03600
C2366       C  0.63190264  0.40961537  0.70165212    -0.06200
C2367       C  0.63270224  0.41170032  0.73246382    -0.21200
C2368       C  0.61052067  0.38973795  0.74922254     0.24500
C2369       C  0.58718168  0.36559908  0.73419340    -0.18800
C2370       C  0.58640437  0.36348154  0.70328229    -0.08800
C2371       C  0.61365311  0.39232427  0.78211141    -0.19000
C2372       C  0.59168582  0.37689414  0.80092771    -0.23800
C2373       C  0.59536991  0.37835167  0.83376562     0.26500
C2374       C  0.57386947  0.35542067  0.85021297    -0.20600
C2375       C  0.57666347  0.35501248  0.88087830    -0.10300
C2376       C  0.60102110  0.37771280  0.89610498    -0.10800
C2377       C  0.62215373  0.40119784  0.87979908    -0.03700
C2378       C  0.61935029  0.40160030  0.84904633    -0.18800
H2379       H  0.64972654  0.42686437  0.68968567     0.10200
H2380       H  0.65101283  0.43048365  0.74329323     0.10300
H2381       H  0.56992778  0.34776530  0.74603507     0.10000
H2382       H  0.56848669  0.34433498  0.69250924     0.11100
H2383       H  0.63532445  0.40754546  0.79093709     0.11200
H2384       H  0.57001325  0.36166034  0.79211378     0.13100
H2385       H  0.55501005  0.33736025  0.83921085     0.09600
H2386       H  0.55983179  0.33660169  0.89258088     0.11700
H2387       H  0.64106762  0.41921539  0.89074931     0.08300
H2388       H  0.63598058  0.42025081  0.83754768     0.11000
C2389       C  0.76146664  0.38384578  0.68739765    -0.03600
C2390       C  0.76205907  0.40787586  0.70214944    -0.06200
C2391       C  0.76309350  0.40995798  0.73292480    -0.21200
C2392       C  0.76398228  0.38837173  0.74987683     0.24500
C2393       C  0.76388378  0.36449719  0.73523245    -0.18800
C2394       C  0.76266956  0.36230581  0.70433981    -0.08800
C2395       C  0.76331925  0.39090033  0.78259386    -0.19000
C2396       C  0.77289586  0.37785384  0.80144521    -0.23800
C2397       C  0.77082637  0.37941532  0.83411540     0.26500
C2398       C  0.77031075  0.35700367  0.85085251    -0.20600
C2399       C  0.76723980  0.35680331  0.88144084    -0.10300
C2400       C  0.76485334  0.37922664  0.89620707    -0.10800
C2401       C  0.76640347  0.40227500  0.87958462    -0.03700
C2402       C  0.76943201  0.40243605  0.84890399    -0.18800
H2403       H  0.76106798  0.42488132  0.68996433     0.10200
H2404       H  0.76296986  0.42847496  0.74356865     0.10300
H2405       H  0.76374022  0.34695391  0.74742897     0.10000
H2406       H  0.76201502  0.34338417  0.69377726     0.11100
H2407       H  0.75444241  0.40411982  0.79127629     0.11200
H2408       H  0.78169311  0.36455525  0.79278138     0.13100
H2409       H  0.77165012  0.33917375  0.84013163     0.09600
H2410       H  0.76629967  0.33874730  0.89343424     0.11700
H2411       H  0.76495523  0.42006946  0.89021164     0.08300
H2412       H  0.77082611  0.42070568  0.83700102     0.11000
C2413       C  0.75830453  0.88081674  0.15418229     0.79900
N2414       N  0.75488196  0.85649536  0.13954648    -0.78400
C2415       C  0.74789906  0.85233013  0.11026408     0.82300
N2416       N  0.74427169  0.87258074  0.09551388    -0.78400
C2417       C  0.74858398  0.89737165  0.10971950     0.82400
N2418       N  0.75568243  0.90142034  0.13891347    -0.80100
C2419       C  0.75620272  0.87559183  0.42870038     0.79900
N2420       N  0.75361143  0.89714941  0.44288830    -0.78400
C2421       C  0.74794572  0.89543187  0.47222855     0.82300
N2422       N  0.74502468  0.87220408  0.48751617    -0.78400
C2423       C  0.74855166  0.85115261  0.47377144     0.82400
N2424       N  0.75413436  0.85292280  0.44448427    -0.80100
C2425       C  0.60579301  0.87579221  0.42868845     0.79900
N2426       N  0.58541027  0.85271212  0.44395821    -0.78400
C2427       C  0.58934864  0.85028659  0.47311112     0.82300
N2428       N  0.61385602  0.87119018  0.48731630    -0.78400
C2429       C  0.63390620  0.89490861  0.47254692     0.82400
N2430       N  0.62984579  0.89718937  0.44327705    -0.80100
C2431       C  0.60862164  0.88122725  0.15470530     0.79900
N2432       N  0.58734611  0.85726787  0.13980068    -0.78400
C2433       C  0.58977518  0.85344711  0.11044395     0.82300
N2434       N  0.61361300  0.87363290  0.09591262    -0.78400
C2435       C  0.63448486  0.89804112  0.11036856     0.82400
N2436       N  0.63186699  0.90180341  0.13965681    -0.80100
C2437       C  0.60839233  0.72770407  0.15377590     0.79900
N2438       N  0.58753489  0.73152601  0.13988297    -0.78400
C2439       C  0.59015216  0.73851916  0.11081017     0.82300
N2440       N  0.61367079  0.74166161  0.09566163    -0.78400
C2441       C  0.63396139  0.73693040  0.10913194     0.82400
N2442       N  0.63115525  0.72989853  0.13798052    -0.80100
C2443       C  0.60588731  0.72722268  0.42798121     0.79900
N2444       N  0.58537860  0.73009915  0.44335026    -0.78400
C2445       C  0.58921972  0.73709983  0.47257462     0.82300
N2446       N  0.61381121  0.74120620  0.48675423    -0.78400
C2447       C  0.63408115  0.73745584  0.47194854     0.82400
N2448       N  0.63004913  0.73043287  0.44258385    -0.80100
C2449       C  0.87162377  0.60973237  0.42729836     0.79900
N2450       N  0.89300565  0.63383255  0.44195600    -0.78400
C2451       C  0.89053702  0.63812237  0.47121550     0.82300
N2452       N  0.86658925  0.61818566  0.48587303    -0.78400
C2453       C  0.84565177  0.59363858  0.47161600     0.82400
N2454       N  0.84833237  0.58949184  0.44248531    -0.80100
C2455       C  0.87595692  0.61550345  0.15438538     0.79900
N2456       N  0.89614778  0.63895270  0.13934498    -0.78400
C2457       C  0.89205621  0.64160587  0.11023580     0.82300
N2458       N  0.86774169  0.62061556  0.09590947    -0.78400
C2459       C  0.84790156  0.59664725  0.11044034     0.82400
N2460       N  0.85206976  0.59407638  0.13960265    -0.80100
C2461       C  0.87611323  0.76294918  0.15492719     0.79900
N2462       N  0.85178407  0.75967550  0.14067441    -0.78400
C2463       C  0.84734571  0.75240226  0.11142918     0.82300
N2464       N  0.86739639  0.74844998  0.09638913    -0.78400
C2465       C  0.89215106  0.75257840  0.11026844     0.82400
N2466       N  0.89639022  0.75987327  0.13939055    -0.80100
C2467       C  0.87104149  0.75857533  0.42765014     0.79900
N2468       N  0.89256390  0.75610428  0.44182931    -0.78400
C2469       C  0.89048155  0.75021748  0.47111463     0.82300
N2470       N  0.86686616  0.74689844  0.48621372    -0.78400
C2471       C  0.84587050  0.75032008  0.47242108     0.82400
N2472       N  0.84811240  0.75620801  0.44330822    -0.80100
C2473       C  0.72368524  0.60949307  0.42827379     0.79900
N2474       N  0.72676075  0.63386616  0.44256014    -0.78400
C2475       C  0.73353496  0.63828229  0.47191293     0.82300
N2476       N  0.73718279  0.61823869  0.48703251    -0.78400
C2477       C  0.73322860  0.59347646  0.47313308     0.82400
N2478       N  0.72643215  0.58920310  0.44392559    -0.80100
C2479       C  0.72544484  0.61456533  0.15500696     0.79900
N2480       N  0.72888637  0.59365883  0.14051722    -0.78400
C2481       C  0.73663517  0.59684851  0.11168944     0.82300
N2482       N  0.74073766  0.62094272  0.09721162    -0.78400
C2483       C  0.73642118  0.64141484  0.11120253     0.82400
N2484       N  0.72871935  0.63810408  0.13996432    -0.80100
O2485       O  0.76425577  0.81870515  0.10198004    -0.75600
O2486       O  0.72644416  0.81485228  0.07357308    -0.54600
C2487       C  0.74591705  0.82690813  0.09429870     0.78100
O2488       O  0.81329885  0.76762994  0.48194856    -0.60200
O2489       O  0.81063350  0.73085815  0.00994084    -0.53300
C2490       C  0.82170907  0.74935661  0.48908358     0.70100
O2491       O  0.76579779  0.81881931  0.48343727    -0.74800
O2492       O  0.72655890  0.81432181  0.01017801    -0.55400
C2493       C  0.74737854  0.82708101  0.49049597     0.76100
O2494       O  0.81300966  0.76818942  0.10385900    -0.60000
O2495       O  0.81088499  0.73176439  0.07403845    -0.53100
C2496       C  0.82194456  0.75046006  0.09561370     0.72700
Zr2497     Zr  0.77830402  0.78287818  0.08597688     2.54700
O2498       O  0.82478124  0.82859595  0.08323709    -0.80500
O2499       O  0.78076812  0.78555959  0.13966528    -0.93900
Zr2500     Zr  0.77763661  0.78166103  0.99817054     2.64700
O2501       O  0.82435386  0.82705259  0.00353844    -0.98900
O2502       O  0.78194394  0.78652090  0.44622462    -0.80900
O2503       O  0.76416580  0.79694873  0.04201863    -0.84300
O2504       O  0.79315700  0.76913676  0.04206149    -2.19000
O2505       O  0.71989770  0.67462169  0.10269819    -0.67700
O2506       O  0.75535704  0.67572052  0.07318968    -0.52300
C2507       C  0.73751937  0.66561072  0.09472514     0.71100
O2508       O  0.66784431  0.72122420  0.48025790    -0.60600
O2509       O  0.66950028  0.75672240  0.00875476    -0.52600
C2510       C  0.65936378  0.73941002  0.48805292     0.72900
O2511       O  0.71783961  0.67258285  0.47956917    -0.72000
O2512       O  0.75459521  0.67503818  0.00844591    -0.50700
C2513       C  0.73562782  0.66384290  0.48767307     0.74300
O2514       O  0.66719907  0.72057773  0.10012788    -0.67300
O2515       O  0.66979627  0.75764648  0.07245956    -0.54500
C2516       C  0.65848256  0.73849923  0.09270714     0.72600
Zr2517     Zr  0.70342873  0.70745874  0.08460685     2.77500
O2518       O  0.65862039  0.66006270  0.08020767    -0.98100
O2519       O  0.70078204  0.70690292  0.13819747    -0.78900
Zr2520     Zr  0.70266161  0.70628772  0.99686520     2.70100
O2521       O  0.65822875  0.65875388  0.00007348    -0.80100
O2522       O  0.70447476  0.70922277  0.44322260    -0.99200
Zr2523     Zr  0.71190458  0.77238328  0.04129699     2.21500
Zr2524     Zr  0.76895288  0.71687228  0.04137770     2.11100
O2525       O  0.71670372  0.69215193  0.04075041    -2.47900
O2526       O  0.68789487  0.72018793  0.04075575    -0.79900
O2527       O  0.75523295  0.73105817  0.08588521    -0.72100
O2528       O  0.72753312  0.75994652  0.49772194    -2.33100
O2529       O  0.72642811  0.75926699  0.08587519    -2.29300
O2530       O  0.75592158  0.73143638  0.49744221    -0.73900
H2531       H  0.81420022  0.77761418  0.04224413     0.78100
H2532       H  0.72134857  0.76621083  0.48056970     0.79200
H2533       H  0.70850674  0.67112729  0.04058863     0.81400
H2534       H  0.72010188  0.76565665  0.10297631     0.79000
H2535       H  0.76137764  0.77422417  0.43925593     0.42100
H2536       H  0.72437466  0.71336881  0.43794814     0.41000
H2537       H  0.64418314  0.66295129  0.01038720     0.40700
H2538       H  0.65367629  0.65361773  0.10078958     0.38600
H2539       H  0.70871958  0.72768982  0.14432854     0.41800
H2540       H  0.76107779  0.78139430  0.14579204     0.36600
H2541       H  0.81940079  0.84331622  0.07723448     0.42700
H2542       H  0.82555464  0.83816032  0.98569900     0.39100
H2543       H  0.64338791  0.66470125  0.07389700     0.44000
H2544       H  0.79384343  0.80661614  0.14464659     0.42700
H2545       H  0.82083144  0.84407848  0.50878808     0.42900
H2546       H  0.69136988  0.68858633  0.43673578     0.41700
O2547       O  0.53973887  0.81749685  0.48155847    -0.75600
O2548       O  0.57393886  0.81440218  0.00923571    -0.54600
C2549       C  0.56640190  0.82595330  0.48929053     0.78100
O2550       O  0.94180626  0.76813366  0.10214812    -0.60200
O2551       O  0.90702836  0.73230640  0.07197208    -0.53300
C2552       C  0.91505128  0.75076139  0.09374340     0.70100
O2553       O  0.53975330  0.82000746  0.10138659    -0.74800
O2554       O  0.57384922  0.81619941  0.07369768    -0.55400
C2555       C  0.56631541  0.82819986  0.09419113     0.76100
O2556       O  0.94070298  0.76670564  0.47898541    -0.60000
O2557       O  0.90684673  0.73167661  0.00847966    -0.53100
C2558       C  0.91427914  0.74907132  0.48697927     0.72700
Zr2559     Zr  0.99024477  0.78153003  0.99705355     2.54700
O2560       O  0.99043551  0.82783108  0.00063330    -0.80500
O2561       O  0.98941471  0.78043923  0.44344510    -0.93900
Zr2562     Zr  0.99115874  0.78344666  0.08471411     2.64700
O2563       O  0.98986128  0.82877840  0.08002458    -0.98900
O2564       O  0.99290582  0.78818113  0.13824772    -0.80900
O2565       O  0.51862042  0.79752644  0.04034467    -0.84300
O2566       O  0.96236855  0.76939558  0.04066031    -2.19000
O2567       O  0.94072137  0.67181674  0.47975010    -0.67700
O2568       O  0.90623269  0.67522119  0.00759287    -0.52300
C2569       C  0.91420175  0.66340460  0.48735403     0.71100
O2570       O  0.54018563  0.72240440  0.10217710    -0.60600
O2571       O  0.57425993  0.75971064  0.07470421    -0.52600
C2572       C  0.56675896  0.74060137  0.09508103     0.72900
O2573       O  0.94152229  0.67414334  0.10156942    -0.72000
O2574       O  0.90699692  0.67649893  0.07283973    -0.50700
C2575       C  0.91491025  0.66576885  0.09389549     0.74300
O2576       O  0.53947389  0.72073945  0.48088074    -0.67300
O2577       O  0.57303691  0.75684044  0.00978171    -0.54500
C2578       C  0.56617584  0.73884873  0.48885574     0.72600
Zr2579     Zr  0.98948883  0.70588506  0.99739985     2.77500
O2580       O  0.98626887  0.65833798  0.00213261    -0.98100
O2581       O  0.99200861  0.70438225  0.44426914    -0.78900
Zr2582     Zr  0.99066198  0.70808906  0.08497793     2.70100
O2583       O  0.98948089  0.66128432  0.08206810    -0.80100
O2584       O  0.99206856  0.70955832  0.13869771    -0.99200
Zr2585     Zr  0.54676800  0.77337650  0.04144036     2.21500
Zr2586     Zr  0.93416737  0.71716575  0.04043238     2.11100
O2587       O  0.96163035  0.69235903  0.04100557    -2.47900
O2588       O  0.51890548  0.72121618  0.04178428    -0.79900
O2589       O  0.96170599  0.72975921  0.49673702    -0.72100
O2590       O  0.51905573  0.76083587  0.08542502    -2.33100
O2591       O  0.51854874  0.75884205  0.49672027    -2.29300
O2592       O  0.96235941  0.73166918  0.08513311    -0.73900
H2593       H  0.94990827  0.77799075  0.04055998     0.78100
H2594       H  0.53164322  0.76753443  0.10274328     0.79200
H2595       H  0.94879061  0.67133600  0.04097352     0.81400
H2596       H  0.53090202  0.76477129  0.47969546     0.79000
H2597       H  0.48559562  0.76682628  0.14369745     0.42100
H2598       H  0.97487628  0.71122697  0.14455465     0.41000
H2599       H  0.49120168  0.65748084  0.10243227     0.40700
H2600       H  0.98233317  0.64996275  0.98180591     0.38600
H2601       H  0.97877865  0.71140805  0.43731758     0.41800
H2602       H  0.50446028  0.77985738  0.43680930     0.36600
H2603       H  0.50671158  0.84093169  0.00816788     0.42700
H2604       H  0.98605409  0.83330524  0.10023045     0.39100
H2605       H  0.00845901  0.66447356  0.50712161     0.44000
H2606       H  0.99711646  0.80108979  0.43784916     0.42700
H2607       H  0.01041426  0.84394130  0.07637812     0.42900
H2608       H  0.98714185  0.68952547  0.14431210     0.43200
O2609       O  0.76398820  0.94548366  0.47972022    -0.75600
O2610       O  0.72559966  0.91056537  0.00950412    -0.54600
C2611       C  0.74635561  0.91914210  0.48779023     0.78100
O2612       O  0.81428144  0.54660842  0.10218032    -0.60200
O2613       O  0.81188618  0.58023531  0.07286685    -0.53300
C2614       C  0.82297135  0.57302004  0.09423319     0.70100
O2615       O  0.76510725  0.94706405  0.10100286    -0.74800
O2616       O  0.72692354  0.91213810  0.07305940    -0.55400
C2617       C  0.74667792  0.92026169  0.09351338     0.76100
O2618       O  0.81233025  0.54400909  0.47993064    -0.60000
O2619       O  0.81007634  0.57906755  0.00836296    -0.53100
C2620       C  0.82114476  0.57078122  0.48784334     0.72700
Zr2621     Zr  0.77648869  0.99416256  0.99721714     2.54700
O2622       O  0.82229805  0.99359131  0.00149816    -0.80500
O2623       O  0.77968170  0.49456028  0.44330431    -0.93900
Zr2624     Zr  0.77881545  0.99627184  0.08474863     2.64700
O2625       O  0.82487589  0.99640010  0.07939493    -0.98900
O2626       O  0.78377418  0.49741095  0.13769030    -0.80900
O2627       O  0.76380736  0.96662902  0.04098714    -0.84300
O2628       O  0.79391168  0.52463494  0.04052752    -2.19000
O2629       O  0.71748090  0.54402163  0.48136608    -0.67700
O2630       O  0.75419106  0.57911702  0.00962421    -0.52300
C2631       C  0.73512983  0.57077094  0.48955406     0.71100
O2632       O  0.66798451  0.94762453  0.10194050    -0.60600
O2633       O  0.67016060  0.91256815  0.07346712    -0.52600
C2634       C  0.65916360  0.92081358  0.09422464     0.72900
O2635       O  0.72003865  0.54678521  0.10295034    -0.72000
O2636       O  0.75642386  0.58049698  0.07437101    -0.50700
C2637       C  0.73804696  0.57326149  0.09546488     0.74300
O2638       O  0.66713412  0.94502142  0.48090304    -0.67300
O2639       O  0.66916697  0.91172171  0.00870826    -0.54500
C2640       C  0.65900266  0.91862476  0.48851983     0.72600
Zr2641     Zr  0.70138811  0.99456158  0.99817087     2.77500
O2642       O  0.65633812  0.99572607  0.00623533    -0.98100
O2643       O  0.69642447  0.99409114  0.44462264    -0.78900
Zr2644     Zr  0.70367486  0.99653448  0.08566495     2.70100
O2645       O  0.65828768  0.99796782  0.08212105    -0.80100
O2646       O  0.70095739  0.99554694  0.13925877    -0.99200
Zr2647     Zr  0.71160550  0.93891094  0.04132473     2.21500
Zr2648     Zr  0.76937376  0.55235162  0.04113298     2.11100
O2649       O  0.71714273  0.52455694  0.04152910    -2.47900
O2650       O  0.68739771  0.96689612  0.04188852    -0.79900
O2651       O  0.75471621  0.52339809  0.49697290    -0.72100
O2652       O  0.72698377  0.96800926  0.08579572    -2.33100
O2653       O  0.72603673  0.96652975  0.49652905    -2.29300
O2654       O  0.75671770  0.52553284  0.08552500    -0.73900
H2655       H  0.81492915  0.53740265  0.04037276     0.78100
H2656       H  0.72109251  0.95587931  0.10297172     0.79200
H2657       H  0.70877253  0.53724828  0.04173980     0.81400
H2658       H  0.71938020  0.95361420  0.47933335     0.79000
H2659       H  0.76617282  0.99855741  0.14531288     0.42100
H2660       H  0.72385699  0.51279903  0.14530491     0.41000
H2661       H  0.64421375  0.97918338  0.07214412     0.40700
H2662       H  0.64598592  0.48718778  0.98520746     0.38600
H2663       H  0.71788661  0.49945353  0.43763873     0.41800
H2664       H  0.75911952  0.97875294  0.43656022     0.36600
H2665       H  0.83303042  0.00305554  0.98340649     0.42700
H2666       H  0.84021271  0.51744651  0.07201924     0.39100
H2667       H  0.64735768  0.99021881  0.48444113     0.44000
H2668       H  0.79243380  0.98813684  0.43764757     0.42700
H2669       H  0.83793553  0.01473745  0.06908135     0.42900
H2670       H  0.68851060  0.00416278  0.14415797     0.43200
C2671       C  0.71913144  0.60562340  0.39574102    -0.03600
C2672       C  0.71747201  0.58095835  0.38127902    -0.06200
C2673       C  0.71580559  0.57832869  0.35052861    -0.21200
C2674       C  0.71543258  0.60004907  0.33332485     0.24500
C2675       C  0.71652885  0.62451972  0.34774837    -0.18800
C2676       C  0.71828213  0.62720232  0.37859140    -0.08800
C2677       C  0.71587526  0.59714420  0.30059366    -0.19000
C2678       C  0.70826995  0.61172106  0.28154469    -0.23800
C2679       C  0.71102505  0.61062570  0.24888967     0.26500
C2680       C  0.71174099  0.63325705  0.23232823    -0.20600
C2681       C  0.71576750  0.63417537  0.20185779    -0.10300
C2682       C  0.71899601  0.61229747  0.18703171    -0.10800
C2683       C  0.71717218  0.58899532  0.20339395    -0.03700
C2684       C  0.71316774  0.58809629  0.23393906    -0.18800
H2685       H  0.71812260  0.56387313  0.39365628     0.10200
H2686       H  0.71517193  0.55934602  0.34010312     0.10300
H2687       H  0.71711971  0.64220863  0.33545070     0.10000
H2688       H  0.71975088  0.64659095  0.38893427     0.11100
H2689       H  0.72331635  0.58263901  0.29214841     0.11200
H2690       H  0.70072463  0.62611907  0.29007685     0.13100
H2691       H  0.70984513  0.65073811  0.24311785     0.09600
H2692       H  0.71683794  0.65237724  0.19003173     0.11700
H2693       H  0.71923323  0.57159016  0.19268571     0.08300
H2694       H  0.71170933  0.56966221  0.24554026     0.11000
C2695       C  0.88018160  0.76866871  0.18724006    -0.03600
C2696       C  0.90556210  0.77225071  0.20159701    -0.06200
C2697       C  0.90858241  0.77546088  0.23224838    -0.21200
C2698       C  0.88633557  0.77505891  0.24938780     0.24500
C2699       C  0.86140910  0.77265253  0.23495107    -0.18800
C2700       C  0.85834515  0.76934835  0.20425433    -0.08800
C2701       C  0.89000778  0.77675783  0.28207280    -0.19000
C2702       C  0.86770030  0.76871942  0.30084354    -0.23800
C2703       C  0.87061861  0.76808905  0.33340755     0.26500
C2704       C  0.84818925  0.76701475  0.35072094    -0.20600
C2705       C  0.84874270  0.76455711  0.38124466    -0.10300
C2706       C  0.87173592  0.76292187  0.39534853    -0.10800
C2707       C  0.89439103  0.76420231  0.37809325    -0.03700
C2708       C  0.89383690  0.76668452  0.34742722    -0.18800
H2709       H  0.92297550  0.77206418  0.18923226     0.10200
H2710       H  0.92814575  0.77759221  0.24266351     0.10300
H2711       H  0.84414399  0.77331789  0.24701459     0.10000
H2712       H  0.83864391  0.76692850  0.19391942     0.11100
H2713       H  0.91182705  0.78385638  0.29075339     0.11200
H2714       H  0.84588597  0.76171315  0.29227868     0.13100
H2715       H  0.82993631  0.76780870  0.34054313     0.09600
H2716       H  0.83080370  0.76350670  0.39370800     0.11700
H2717       H  0.91227487  0.76271316  0.38818520     0.08300
H2718       H  0.91114682  0.76654890  0.33491105     0.11000
C2719       C  0.87263428  0.60609281  0.39485968    -0.03600
C2720       C  0.85088035  0.58056558  0.38025240    -0.06200
C2721       C  0.85008514  0.57799737  0.34952526    -0.21200
C2722       C  0.87110635  0.60067820  0.33255285     0.24500
C2723       C  0.89324688  0.62607776  0.34710901    -0.18800
C2724       C  0.89402223  0.62868601  0.37792653    -0.08800
C2725       C  0.86778150  0.59778796  0.29985938    -0.19000
C2726       C  0.88988733  0.61289322  0.28120204    -0.23800
C2727       C  0.88596673  0.61206343  0.24857311     0.26500
C2728       C  0.90704628  0.63558644  0.23246445    -0.20600
C2729       C  0.90394690  0.63653902  0.20195485    -0.10300
C2730       C  0.87974388  0.61376485  0.18664682    -0.10800
C2731       C  0.85892941  0.58981168  0.20264194    -0.03700
C2732       C  0.86201268  0.58889279  0.23323400    -0.18800
H2733       H  0.83400574  0.56269732  0.39249938     0.10200
H2734       H  0.83269535  0.55829974  0.33892497     0.10300
H2735       H  0.90935920  0.64446697  0.33487906     0.10000
H2736       H  0.91088476  0.64878378  0.38839938     0.11100
H2737       H  0.84596657  0.58292280  0.29111341     0.11200
H2738       H  0.91169502  0.62761555  0.29009566     0.13100
H2739       H  0.92578215  0.65364335  0.24362578     0.09600
H2740       H  0.92045081  0.65534805  0.19044252     0.11700
H2741       H  0.84012244  0.57178036  0.19156962     0.08300
H2742       H  0.84569660  0.56988523  0.24456489     0.11000
C2743       C  0.60213279  0.72168345  0.39548718    -0.03600
C2744       C  0.57741674  0.71935218  0.38080258    -0.06200
C2745       C  0.57455296  0.71618836  0.35011909    -0.21200
C2746       C  0.59628594  0.71537942  0.33309057     0.24500
C2747       C  0.62062189  0.71669075  0.34778149    -0.18800
C2748       C  0.62349220  0.71985441  0.37860948    -0.08800
C2749       C  0.59240597  0.71334506  0.30030096    -0.19000
C2750       C  0.61392569  0.71915414  0.28101099    -0.23800
C2751       C  0.61021693  0.71905112  0.24832439     0.26500
C2752       C  0.63067485  0.71694265  0.23034317    -0.20600
C2753       C  0.62938177  0.71869691  0.19970147    -0.10300
C2754       C  0.60768405  0.72291148  0.18610447    -0.10800
C2755       C  0.58684368  0.72452005  0.20401021    -0.03700
C2756       C  0.58812254  0.72272246  0.23474991    -0.18800
H2757       H  0.56036468  0.72046254  0.39294587     0.10200
H2758       H  0.55543699  0.71495394  0.33957927     0.10300
H2759       H  0.63752629  0.71526662  0.33579163     0.10000
H2760       H  0.64266017  0.72124893  0.38916327     0.11100
H2761       H  0.57083619  0.70758814  0.29186381     0.11200
H2762       H  0.63546101  0.72453141  0.28917154     0.13100
H2763       H  0.64801389  0.71427206  0.24008117     0.09600
H2764       H  0.64587720  0.71736543  0.18673869     0.11700
H2765       H  0.57002645  0.72804752  0.19437197     0.08300
H2766       H  0.57237510  0.72530275  0.24768016     0.11000
C2767       C  0.60727955  0.88433528  0.18720194    -0.03600
C2768       C  0.62756126  0.91039658  0.20212011    -0.06200
C2769       C  0.62761218  0.91270351  0.23286346    -0.21200
C2770       C  0.60755562  0.88905200  0.24960526     0.24500
C2771       C  0.58670114  0.86315293  0.23461553    -0.18800
C2772       C  0.58662153  0.86087812  0.20381671    -0.08800
C2773       C  0.60941111  0.89269255  0.28240375    -0.19000
C2774       C  0.59499268  0.87061496  0.30123751    -0.23800
C2775       C  0.59761530  0.87426166  0.33393652     0.26500
C2776       C  0.57567446  0.85231077  0.35083183    -0.20600
C2777       C  0.57788931  0.85345217  0.38154027    -0.10300
C2778       C  0.60233591  0.87650782  0.39626003    -0.10800
C2779       C  0.62408451  0.89893524  0.37945507    -0.03700
C2780       C  0.62182666  0.89781248  0.34860959    -0.18800
H2781       H  0.64368153  0.92900865  0.19007917     0.10200
H2782       H  0.64375250  0.93300909  0.24365148     0.10300
H2783       H  0.57027573  0.84450973  0.24624042     0.10000
H2784       H  0.57061151  0.84049984  0.19307174     0.11100
H2785       H  0.62364527  0.91467970  0.29123770     0.11200
H2786       H  0.58035916  0.84862919  0.29273922     0.13100
H2787       H  0.55683664  0.83390485  0.34018881     0.09600
H2788       H  0.56066646  0.83577856  0.39367622     0.11700
H2789       H  0.64328197  0.91694178  0.39005161     0.08300
H2790       H  0.63961332  0.91486308  0.33651310     0.11000
C2791       C  0.76298080  0.88412359  0.18672125    -0.03600
C2792       C  0.76896062  0.91036063  0.20131217    -0.06200
C2793       C  0.77050250  0.91265453  0.23210058    -0.21200
C2794       C  0.76623153  0.88889955  0.24924148     0.24500
C2795       C  0.76086352  0.86276675  0.23463057    -0.18800
C2796       C  0.75942460  0.86051048  0.20375929    -0.08800
C2797       C  0.76592948  0.89202344  0.28203400    -0.19000
C2798       C  0.76763770  0.87359429  0.30125485    -0.23800
C2799       C  0.76570644  0.87565231  0.33401019     0.26500
C2800       C  0.76208624  0.85187251  0.35071621    -0.20600
C2801       C  0.75943691  0.85207654  0.38134243    -0.10300
C2802       C  0.76037329  0.87617045  0.39625648    -0.10800
C2803       C  0.76453136  0.90028147  0.37970996    -0.03700
C2804       C  0.76729271  0.90012770  0.34899316    -0.18800
H2805       H  0.77188901  0.92904745  0.18897227     0.10200
H2806       H  0.77461414  0.93303000  0.24260237     0.10300
H2807       H  0.75673969  0.84359528  0.24670276     0.10000
H2808       H  0.75452898  0.83987668  0.19329754     0.11100
H2809       H  0.76387944  0.91031254  0.29033030     0.11200
H2810       H  0.77002485  0.85553437  0.29282437     0.13100
H2811       H  0.76092693  0.83277536  0.33997306     0.09600
H2812       H  0.75626144  0.83307808  0.39326157     0.11700
H2813       H  0.76559497  0.91931648  0.39047148     0.08300
H2814       H  0.77078356  0.91932921  0.33739419     0.11000
C2815       C  0.75820468  0.88165326  0.65519516     0.79900
N2816       N  0.75518126  0.85736202  0.64080336    -0.78400
C2817       C  0.74893572  0.85327402  0.61137262     0.82300
N2818       N  0.74566178  0.87353581  0.59625501    -0.78400
C2819       C  0.74958202  0.89826831  0.61022149     0.82400
N2820       N  0.75589937  0.90225318  0.63957107    -0.80100
C2821       C  0.75660689  0.87610635  0.92923004     0.79900
N2822       N  0.75296306  0.89690505  0.94365157    -0.78400
C2823       C  0.74578525  0.89404875  0.97262916     0.82300
N2824       N  0.74223089  0.87022248  0.98730459    -0.78400
C2825       C  0.74674329  0.84984369  0.97331735     0.82400
N2826       N  0.75401222  0.85293583  0.94443275    -0.80100
C2827       C  0.60366390  0.87613953  0.92807370     0.79900
N2828       N  0.58391039  0.85256249  0.94326030    -0.78400
C2829       C  0.58837940  0.84991113  0.97226522     0.82300
N2830       N  0.61279045  0.87106854  0.98637314    -0.78400
C2831       C  0.63227383  0.89521752  0.97175575     0.82400
N2832       N  0.62764566  0.89776314  0.94264611    -0.80100
C2833       C  0.60999356  0.88144452  0.65431449     0.79900
N2834       N  0.58842506  0.85767970  0.63944571    -0.78400
C2835       C  0.59081836  0.85360085  0.61013415     0.82300
N2836       N  0.61489484  0.87344258  0.59555725    -0.78400
C2837       C  0.63603919  0.89775621  0.60996620     0.82400
N2838       N  0.63346001  0.90164872  0.63922927    -0.80100
C2839       C  0.60789725  0.72664527  0.65316218     0.79900
N2840       N  0.58704029  0.73028382  0.63908569    -0.78400
C2841       C  0.58999677  0.73771122  0.61017207     0.82300
N2842       N  0.61396142  0.74163292  0.59534766    -0.78400
C2843       C  0.63438468  0.73723883  0.60903546     0.82400
N2844       N  0.63117992  0.72963168  0.63775316    -0.80100
C2845       C  0.60445655  0.72545235  0.92793775     0.79900
N2846       N  0.58398764  0.72841599  0.94331655    -0.78400
C2847       C  0.58776580  0.73520011  0.97261210     0.82300
N2848       N  0.61213239  0.73887074  0.98684658    -0.78400
C2849       C  0.63225269  0.73490511  0.97206436     0.82400
N2850       N  0.62839609  0.72822354  0.94262546    -0.80100
C2851       C  0.87153830  0.60957770  0.92676161     0.79900
N2852       N  0.89268177  0.63381049  0.94139647    -0.78400
C2853       C  0.88988687  0.63830589  0.97050232     0.82300
N2854       N  0.86589177  0.61843185  0.98508731    -0.78400
C2855       C  0.84515109  0.59376831  0.97087600     0.82400
N2856       N  0.84811161  0.58939468  0.94184858    -0.80100
C2857       C  0.87737078  0.61413289  0.65410797     0.79900
N2858       N  0.89740619  0.63771187  0.63911260    -0.78400
C2859       C  0.89311541  0.64064252  0.61013312     0.82300
N2860       N  0.86864775  0.61971240  0.59587760    -0.78400
C2861       C  0.84891283  0.59560838  0.61039796     0.82400
N2862       N  0.85333702  0.59283621  0.63943625    -0.80100
C2863       C  0.87664939  0.76333915  0.65555962     0.79900
N2864       N  0.85246713  0.76038971  0.64129237    -0.78400
C2865       C  0.84803868  0.75316664  0.61202163     0.82300
N2866       N  0.86794617  0.74900558  0.59697189    -0.78400
C2867       C  0.89255066  0.75282502  0.61087604     0.82400
N2868       N  0.89678076  0.76003559  0.64000643    -0.80100
C2869       C  0.87199126  0.76064483  0.92817620     0.79900
N2870       N  0.89342386  0.75828006  0.94258701    -0.78400
C2871       C  0.89076193  0.75159640  0.97164555     0.82300
N2872       N  0.86659660  0.74733528  0.98636072    -0.78400
C2873       C  0.84555527  0.75051252  0.97231156     0.82400
N2874       N  0.84841325  0.75721524  0.94338207    -0.80100
C2875       C  0.72547466  0.61069257  0.92693111     0.79900
N2876       N  0.72825484  0.63478258  0.94149630    -0.78400
C2877       C  0.73447808  0.63867609  0.97090977     0.82300
N2878       N  0.73777000  0.61836602  0.98585316    -0.78400
C2879       C  0.73406062  0.59383454  0.97168465     0.82400
N2880       N  0.72788132  0.59005892  0.94234238    -0.80100
C2881       C  0.72672440  0.61535738  0.65445409     0.79900
N2882       N  0.73017720  0.59434544  0.64028643    -0.78400
C2883       C  0.73710992  0.59689729  0.61128870     0.82300
N2884       N  0.74063163  0.62060964  0.59639211    -0.78400
C2885       C  0.73637943  0.64121486  0.61024484     0.82400
N2886       N  0.72933124  0.63841919  0.63911373    -0.80100
O2887       O  0.76582534  0.81999172  0.60291832    -0.75600
O2888       O  0.72737926  0.81556475  0.57513263    -0.54600
C2889       C  0.74712982  0.82786615  0.59557069     0.78100
O2890       O  0.81135893  0.76592402  0.98045764    -0.60200
O2891       O  0.81076039  0.73066921  0.50972999    -0.53300
C2892       C  0.82083351  0.74878356  0.98856849     0.70100
O2893       O  0.76327754  0.81665385  0.98177553    -0.74800
O2894       O  0.72805252  0.81571718  0.51068332    -0.55400
C2895       C  0.74536106  0.82537011  0.98952084     0.76100
O2896       O  0.81362181  0.76879224  0.60484879    -0.60000
O2897       O  0.81176030  0.73281188  0.57445372    -0.53100
C2898       C  0.82269218  0.75128720  0.59625014     0.72700
Zr2899     Zr  0.77882019  0.78326495  0.58716954     2.54700
O2900       O  0.82603784  0.82822749  0.58511250    -0.80500
O2901       O  0.77807081  0.78366241  0.64087217    -0.93900
Zr2902     Zr  0.77938254  0.78326635  0.49966158     2.64700
O2903       O  0.82604069  0.82848851  0.50672526    -0.98900
O2904       O  0.78115664  0.78496884  0.94472842    -0.80900
O2905       O  0.76528047  0.79810177  0.54338718    -0.84300
O2906       O  0.79407072  0.76977477  0.54334154    -2.19000
O2907       O  0.71970478  0.67427420  0.60164041    -0.67700
O2908       O  0.75606704  0.67616645  0.57300518    -0.52300
C2909       C  0.73759102  0.66549280  0.59391612     0.71100
O2910       O  0.66582768  0.71855564  0.98065018    -0.60600
O2911       O  0.67101164  0.75874456  0.50909515    -0.52600
C2912       C  0.65753721  0.73694973  0.98814273     0.72900
O2913       O  0.71787988  0.67210180  0.97891492    -0.72000
O2914       O  0.75451754  0.67525790  0.50898211    -0.50700
C2915       C  0.73595404  0.66372181  0.98695791     0.74300
O2916       O  0.66777801  0.72116996  0.59996523    -0.67300
O2917       O  0.67071190  0.75874879  0.57289641    -0.54500
C2918       C  0.65918006  0.73924965  0.59280734     0.72600
Zr2919     Zr  0.70396535  0.70803572  0.58446427     2.77500
O2920       O  0.65854314  0.66122770  0.57965986    -0.98100
O2921       O  0.70149512  0.70718543  0.63803247    -0.78900
Zr2922     Zr  0.70405164  0.70814878  0.49683593     2.70100
O2923       O  0.65817319  0.66166992  0.49815614    -0.80100
O2924       O  0.70007800  0.70553129  0.94319097    -0.99200
Zr2925     Zr  0.71306120  0.77376191  0.54201376     2.21500
Zr2926     Zr  0.76971273  0.71754201  0.54171812     2.11100
O2927       O  0.71752652  0.69321044  0.54053696    -2.47900
O2928       O  0.68896004  0.72155769  0.54079347    -0.79900
O2929       O  0.75572091  0.73138924  0.58626225    -0.72100
O2930       O  0.72577324  0.75808538  0.99680207    -2.33100
O2931       O  0.72701088  0.75984809  0.58639219    -2.29300
O2932       O  0.75452272  0.72984688  0.99682522    -0.73900
H2933       H  0.81510918  0.77816024  0.54371079     0.78100
H2934       H  0.71927177  0.76402902  0.97963733     0.79200
H2935       H  0.70926368  0.67218272  0.54007067     0.81400
H2936       H  0.72057890  0.76606603  0.60354017     0.79000
H2937       H  0.76895516  0.76448193  0.93735621     0.42100
H2938       H  0.71987202  0.71026271  0.93680502     0.41000
H2939       H  0.64440291  0.66641146  0.50826062     0.40700
H2940       H  0.66306624  0.64910355  0.56617076     0.38600
H2941       H  0.71945470  0.72525383  0.64475135     0.41800
H2942       H  0.75832909  0.78013872  0.64590595     0.36600
H2943       H  0.82316063  0.84008237  0.57015426     0.42700
H2944       H  0.83555131  0.83183839  0.48732223     0.39100
H2945       H  0.65623396  0.65217158  0.59913492     0.44000
H2946       H  0.79151427  0.80436779  0.64689747     0.42700
H2947       H  0.82140730  0.83799064  0.01984108     0.42900
H2948       H  0.68728081  0.68460611  0.93749802     0.41700
O2949       O  0.53901817  0.81670112  0.98109591    -0.75600
O2950       O  0.57429834  0.81478376  0.50992312    -0.54600
C2951       C  0.56576984  0.82537428  0.98860455     0.78100
O2952       O  0.94216322  0.76888721  0.60236647    -0.60200
O2953       O  0.90741435  0.73209609  0.57296601    -0.53300
C2954       C  0.91542293  0.75100228  0.59434840     0.70100
O2955       O  0.54065906  0.81996779  0.60157025    -0.74800
O2956       O  0.57453903  0.81618916  0.57353622    -0.55400
C2957       C  0.56718155  0.82825593  0.59408735     0.76100
O2958       O  0.94079798  0.76732680  0.97946062    -0.60000
O2959       O  0.90714244  0.73112044  0.50836100    -0.53100
C2960       C  0.91428418  0.74996551  0.98742362     0.72700
Zr2961     Zr  0.99009115  0.78160413  0.49714547     2.54700
O2962       O  0.99041920  0.82801254  0.49962919    -0.80500
O2963       O  0.99061717  0.78174878  0.94332387    -0.93900
Zr2964     Zr  0.99141580  0.78432949  0.58479584     2.64700
O2965       O  0.98938248  0.82913933  0.57840176    -0.98900
O2966       O  0.99292894  0.79035890  0.63821456    -0.80900
O2967       O  0.51923331  0.79792833  0.54107057    -0.84300
O2968       O  0.96231335  0.76944520  0.54088698    -2.19000
O2969       O  0.93995770  0.67156547  0.97919665    -0.67700
O2970       O  0.90688341  0.67499884  0.50840538    -0.52300
C2971       C  0.91349386  0.66347166  0.98665308     0.71100
O2972       O  0.54003135  0.72137989  0.60143501    -0.60600
O2973       O  0.57411907  0.75894729  0.57422380    -0.52600
C2974       C  0.56659738  0.73965599  0.59439401     0.72900
O2975       O  0.94252624  0.67462685  0.60209903    -0.72000
O2976       O  0.90768730  0.67573263  0.57278357    -0.50700
C2977       C  0.91580209  0.66534382  0.59400226     0.74300
O2978       O  0.53827028  0.71919317  0.98110610    -0.67300
O2979       O  0.57407110  0.75817102  0.50983966    -0.54500
C2980       C  0.56496634  0.73730585  0.98892159     0.72600
Zr2981     Zr  0.99035621  0.70658071  0.49782378     2.77500
O2982       O  0.98812902  0.65946910  0.50215345    -0.98100
O2983       O  0.99070959  0.70378024  0.94382510    -0.78900
Zr2984     Zr  0.99167699  0.70914451  0.58545851     2.70100
O2985       O  0.99081357  0.66252371  0.58207319    -0.80100
O2986       O  0.99375613  0.70916484  0.63910429    -0.99200
Zr2987     Zr  0.54697319  0.77341865  0.54149555     2.21500
Zr2988     Zr  0.93459356  0.71718565  0.54105943     2.11100
O2989       O  0.96264715  0.69296256  0.54154664    -2.47900
O2990       O  0.51904880  0.72124593  0.54097793    -0.79900
O2991       O  0.96139653  0.72968430  0.99619210    -0.72100
O2992       O  0.51940376  0.76036104  0.58557997    -2.33100
O2993       O  0.51802568  0.75772250  0.99693041    -2.29300
O2994       O  0.96303552  0.73241921  0.58571146    -0.73900
H2995       H  0.94957232  0.77770306  0.54073746     0.78100
H2996       H  0.53203343  0.76684799  0.60286997     0.79200
H2997       H  0.95005234  0.67192152  0.54157879     0.81400
H2998       H  0.53031454  0.76342183  0.97986239     0.79000
H2999       H  0.50052850  0.77702509  0.64509817     0.42100
H3000       H  0.97890642  0.71425906  0.64557706     0.41000
H3001       H  0.48212591  0.65263176  0.60048800     0.40700
H3002       H  0.98481388  0.65148652  0.48168977     0.38600
H3003       H  0.98976281  0.72119978  0.93747061     0.41800
H3004       H  0.50718589  0.77945495  0.93708138     0.36600
H3005       H  0.50941211  0.84258300  0.50998926     0.42700
H3006       H  0.98647220  0.83470770  0.59851900     0.39100
H3007       H  0.00655828  0.66296192  0.00669885     0.44000
H3008       H  0.99312618  0.80108036  0.93820961     0.42700
H3009       H  0.00965321  0.84417567  0.57353694     0.42900
H3010       H  0.98543602  0.68828336  0.64413941     0.43200
O3011       O  0.76183212  0.94412137  0.98062437    -0.75600
O3012       O  0.72789350  0.91204231  0.50877946    -0.54600
C3013       C  0.74410856  0.91768245  0.98853347     0.78100
O3014       O  0.81493237  0.54563679  0.60231830    -0.60200
O3015       O  0.81244196  0.57939537  0.57328000    -0.53300
C3016       C  0.82370445  0.57207623  0.59439978     0.70100
O3017       O  0.76608527  0.94795848  0.60136332    -0.74800
O3018       O  0.72898350  0.91292717  0.57248347    -0.55400
C3019       C  0.74807627  0.92112623  0.59357950     0.76100
O3020       O  0.81200103  0.54422048  0.97932722    -0.60000
O3021       O  0.81045823  0.57886267  0.50899794    -0.53100
C3022       C  0.82072620  0.57096745  0.98717223     0.72700
Zr3023     Zr  0.77784246  0.99505417  0.49660378     2.54700
O3024       O  0.82397878  0.99495349  0.49958882    -0.80500
O3025       O  0.77776069  0.49375810  0.94291406    -0.93900
Zr3026     Zr  0.78049802  0.99704582  0.58404029     2.64700
O3027       O  0.82627652  0.99784819  0.57426570    -0.98900
O3028       O  0.78627801  0.49679750  0.63750850    -0.80900
O3029       O  0.76559437  0.96740620  0.54034342    -0.84300
O3030       O  0.79417131  0.52412024  0.54081560    -2.19000
O3031       O  0.71772537  0.54417018  0.98011644    -0.67700
O3032       O  0.75404827  0.57889898  0.51079825    -0.52300
C3033       C  0.73552460  0.57095578  0.98816879     0.71100
O3034       O  0.66918447  0.94741908  0.60128244    -0.60600
O3035       O  0.67216097  0.91254059  0.57329290    -0.52600
C3036       C  0.66076057  0.92061667  0.59380334     0.72900
O3037       O  0.72057125  0.54667891  0.60324076    -0.72000
O3038       O  0.75695867  0.58022947  0.57452937    -0.50700
C3039       C  0.73854210  0.57312532  0.59552132     0.74300
O3040       O  0.66580832  0.94536017  0.98021841    -0.67300
O3041       O  0.67089965  0.91151251  0.50922198    -0.54500
C3042       C  0.65745468  0.91892762  0.98783295     0.72600
Zr3043     Zr  0.70240022  0.99477366  0.49793473     2.77500
O3044       O  0.65662646  0.99495591  0.50434129    -0.98100
O3045       O  0.69584813  0.99338079  0.94479110    -0.78900
Zr3046     Zr  0.70483863  0.99664444  0.58543790     2.70100
O3047       O  0.65932413  0.99796117  0.58281604    -0.80100
O3048       O  0.70410642  0.99547198  0.63905355    -0.99200
Zr3049     Zr  0.71343326  0.93960173  0.54104328     2.21500
Zr3050     Zr  0.76974617  0.55192318  0.54160323     2.11100
O3051       O  0.71755733  0.52422517  0.54217658    -2.47900
O3052       O  0.68869297  0.96710095  0.54164310    -0.79900
O3053       O  0.75438389  0.52366044  0.99660012    -0.72100
O3054       O  0.72866702  0.96865427  0.58545079    -2.33100
O3055       O  0.72467179  0.96597733  0.99694663    -2.29300
O3056       O  0.75716158  0.52493117  0.58591883    -0.73900
H3057       H  0.81520494  0.53677773  0.54068079     0.78100
H3058       H  0.72281157  0.95654427  0.60263779     0.79200
H3059       H  0.70924310  0.53696212  0.54249958     0.81400
H3060       H  0.71800001  0.95310469  0.97971916     0.79000
H3061       H  0.77290207  0.99908984  0.64589464     0.42100
H3062       H  0.72570390  0.50842358  0.64571154     0.41000
H3063       H  0.64516372  0.97924466  0.57278455     0.40700
H3064       H  0.66255020  0.51536141  0.50777692     0.38600
H3065       H  0.71474308  0.49279844  0.93703881     0.41800
H3066       H  0.75849463  0.97920611  0.93690376     0.36600
H3067       H  0.81851325  0.97497821  0.50595676     0.42700
H3068       H  0.83605440  0.50152421  0.59559848     0.39100
H3069       H  0.64110690  0.97494176  0.00861188     0.44000
H3070       H  0.79128471  0.98674872  0.93851333     0.42700
H3071       H  0.82491295  0.98116219  0.58531727     0.42900
H3072       H  0.69214741  0.00438985  0.64486133     0.43200
C3073       C  0.72082137  0.60724249  0.89449747    -0.03600
C3074       C  0.71964991  0.58307708  0.87950872    -0.06200
C3075       C  0.71664254  0.58035400  0.84886150    -0.21200
C3076       C  0.71481883  0.60168466  0.83233172     0.24500
C3077       C  0.71537068  0.62562881  0.84733804    -0.18800
C3078       C  0.71844174  0.62838385  0.87806350    -0.08800
C3079       C  0.71252780  0.59787124  0.79967920    -0.19000
C3080       C  0.71706090  0.61922524  0.78090956    -0.23800
C3081       C  0.71692532  0.61564930  0.74838697     0.26500
C3082       C  0.71197423  0.63443497  0.73077753    -0.20600
C3083       C  0.71411775  0.63360703  0.70018139    -0.10300
C3084       C  0.72147162  0.61403860  0.68650738    -0.10800
C3085       C  0.72571946  0.59468993  0.70403858    -0.03700
C3086       C  0.72362952  0.59556268  0.73467848    -0.18800
H3087       H  0.72140314  0.56633128  0.89138683     0.10200
H3088       H  0.71615539  0.56163186  0.83797724     0.10300
H3089       H  0.71326564  0.64225481  0.83575148     0.10000
H3090       H  0.71909005  0.64718921  0.88890152     0.11100
H3091       H  0.70762124  0.57658682  0.79084148     0.11200
H3092       H  0.72143009  0.64044715  0.78927978     0.13100
H3093       H  0.70688229  0.65015789  0.74078094     0.09600
H3094       H  0.71059590  0.64875690  0.68731429     0.11700
H3095       H  0.73173154  0.57958832  0.69420984     0.08300
H3096       H  0.72850018  0.58131673  0.74745355     0.11000
C3097       C  0.88073128  0.76882831  0.68790938    -0.03600
C3098       C  0.90527798  0.77045096  0.70226511    -0.06200
C3099       C  0.90843952  0.77355751  0.73288057    -0.21200
C3100       C  0.88712865  0.77493459  0.75001024     0.24500
C3101       C  0.86299663  0.77434587  0.73568732    -0.18800
C3102       C  0.85980972  0.77122498  0.70495342    -0.08800
C3103       C  0.89104547  0.77696869  0.78260761    -0.19000
C3104       C  0.86861996  0.76811263  0.80129244    -0.23800
C3105       C  0.87185101  0.76870509  0.83388088     0.26500
C3106       C  0.84950498  0.76813444  0.85090200    -0.20600
C3107       C  0.85022751  0.76665454  0.88150807    -0.10300
C3108       C  0.87321362  0.76531605  0.89595324    -0.10800
C3109       C  0.89604473  0.76653644  0.87901990    -0.03700
C3110       C  0.89537126  0.76814957  0.84825379    -0.18800
H3111       H  0.92194183  0.76882436  0.68992090     0.10200
H3112       H  0.92735197  0.77424019  0.74328516     0.10300
H3113       H  0.84660266  0.77644151  0.74797672     0.10000
H3114       H  0.84080068  0.77037002  0.69461531     0.11100
H3115       H  0.91307056  0.78505739  0.79127089     0.11200
H3116       H  0.84659737  0.75985461  0.79254846     0.13100
H3117       H  0.83113888  0.76847693  0.84041961     0.09600
H3118       H  0.83227591  0.76583214  0.89375360     0.11700
H3119       H  0.91400737  0.76540597  0.88942272     0.08300
H3120       H  0.91271069  0.76785106  0.83592517     0.11000
C3121       C  0.87305002  0.60579552  0.89444473    -0.03600
C3122       C  0.85145571  0.58029286  0.87970812    -0.06200
C3123       C  0.85097330  0.57781009  0.84900029    -0.21200
C3124       C  0.87214984  0.60055258  0.83220469     0.24500
C3125       C  0.89426746  0.62584232  0.84691194    -0.18800
C3126       C  0.89475717  0.62834114  0.87771234    -0.08800
C3127       C  0.86903479  0.59770679  0.79952682    -0.19000
C3128       C  0.89117822  0.61289045  0.78094986    -0.23800
C3129       C  0.88745520  0.61145344  0.74827625     0.26500
C3130       C  0.90881518  0.63450510  0.73191821    -0.20600
C3131       C  0.90578872  0.63503660  0.70137226    -0.10300
C3132       C  0.88133272  0.61236182  0.68629464    -0.10800
C3133       C  0.86035417  0.58871589  0.70249358    -0.03700
C3134       C  0.86341289  0.58817038  0.73312227    -0.18800
H3135       H  0.83442061  0.56243105  0.89182208     0.10200
H3136       H  0.83366280  0.55815136  0.83826557     0.10300
H3137       H  0.91056459  0.64423599  0.83482896     0.10000
H3138       H  0.91159805  0.64836954  0.88831291     0.11100
H3139       H  0.84732499  0.58259152  0.79072554     0.11200
H3140       H  0.91287706  0.62792948  0.78989088     0.13100
H3141       H  0.92768276  0.65257264  0.74290251     0.09600
H3142       H  0.92248134  0.65354442  0.68966418     0.11700
H3143       H  0.84138347  0.57072406  0.69158061     0.08300
H3144       H  0.84693112  0.56940832  0.74461091     0.11000
C3145       C  0.60124841  0.72095083  0.89527683    -0.03600
C3146       C  0.57598607  0.71740435  0.88071330    -0.06200
C3147       C  0.57365303  0.71556061  0.84995643    -0.21200
C3148       C  0.59636453  0.71707319  0.83267896     0.24500
C3149       C  0.62156759  0.72016489  0.84719481    -0.18800
C3150       C  0.62388067  0.72196136  0.87811735    -0.08800
C3151       C  0.59281996  0.71642527  0.79986761    -0.19000
C3152       C  0.61119008  0.71499242  0.78014706    -0.23800
C3153       C  0.60787222  0.71587491  0.74742118     0.26500
C3154       C  0.62527328  0.70924597  0.72907914    -0.20600
C3155       C  0.62460872  0.71183667  0.69845717    -0.10300
C3156       C  0.60637221  0.72102989  0.68528496    -0.10800
C3157       C  0.58831506  0.72684213  0.70344133    -0.03700
C3158       C  0.58918206  0.72454197  0.73409802    -0.18800
H3159       H  0.55805314  0.71652701  0.89304430     0.10200
H3160       H  0.55400787  0.71327878  0.83958822     0.10300
H3161       H  0.63987559  0.72186161  0.83502845     0.10000
H3162       H  0.64373985  0.72486079  0.88853291     0.11100
H3163       H  0.57362791  0.71683670  0.79184539     0.11200
H3164       H  0.62951671  0.71289206  0.78796837     0.13100
H3165       H  0.63989440  0.70253448  0.73851931     0.09600
H3166       H  0.63878131  0.70708058  0.68514250     0.11700
H3167       H  0.57426328  0.73427755  0.69406787     0.08300
H3168       H  0.57581436  0.73058574  0.74702725     0.11000
C3169       C  0.60895501  0.88452402  0.68688538    -0.03600
C3170       C  0.63242777  0.90798801  0.70230198    -0.06200
C3171       C  0.63288720  0.90966968  0.73308563    -0.21200
C3172       C  0.60984958  0.88816113  0.74940143     0.24500
C3173       C  0.58598870  0.86490751  0.73400602    -0.18800
C3174       C  0.58555470  0.86319468  0.70312223    -0.08800
C3175       C  0.61255343  0.89040192  0.78223625    -0.19000
C3176       C  0.59031612  0.87507816  0.80074220    -0.23800
C3177       C  0.59381935  0.87691108  0.83349585     0.26500
C3178       C  0.57293901  0.85364219  0.85002296    -0.20600
C3179       C  0.57574187  0.85379744  0.88069750    -0.10300
C3180       C  0.59953023  0.87735352  0.89574462    -0.10800
C3181       C  0.61986209  0.90122365  0.87933967    -0.03700
C3182       C  0.61701900  0.90108049  0.84859406    -0.18800
H3183       H  0.65088195  0.92482779  0.69064622     0.10200
H3184       H  0.65158432  0.92777928  0.74423865     0.10300
H3185       H  0.56798892  0.84746004  0.74548637     0.10000
H3186       H  0.56717271  0.84472979  0.69202458     0.11100
H3187       H  0.63418161  0.90533767  0.79136892     0.11200
H3188       H  0.56869835  0.85980821  0.79185441     0.13100
H3189       H  0.55464920  0.83491810  0.83909438     0.09600
H3190       H  0.55948618  0.83509052  0.89252740     0.11700
H3191       H  0.63821781  0.91991494  0.89019458     0.08300
H3192       H  0.63298143  0.92002947  0.83692283     0.11000
C3193       C  0.76291024  0.88530397  0.68771206    -0.03600
C3194       C  0.76817406  0.91140108  0.70210447    -0.06200
C3195       C  0.77061187  0.91421965  0.73283888    -0.21200
C3196       C  0.76787162  0.89110875  0.75011633     0.24500
C3197       C  0.76307035  0.86509476  0.73568867    -0.18800
C3198       C  0.76076141  0.86232922  0.70487755    -0.08800
C3199       C  0.76833401  0.89464174  0.78289657    -0.19000
C3200       C  0.77030629  0.87636847  0.80213699    -0.23800
C3201       C  0.76842427  0.87840111  0.83490330     0.26500
C3202       C  0.77156137  0.85815009  0.85211536    -0.20600
C3203       C  0.76845096  0.85785232  0.88271722    -0.10300
C3204       C  0.76215628  0.87791090  0.89704093    -0.10800
C3205       C  0.75964655  0.89863304  0.88001193    -0.03700
C3206       C  0.76258437  0.89883438  0.84935228    -0.18800
H3207       H  0.76999766  0.92960650  0.68966850     0.10200
H3208       H  0.77420839  0.93447565  0.74319711     0.10300
H3209       H  0.76013363  0.84638374  0.74786066     0.10000
H3210       H  0.75649336  0.84183133  0.69457512     0.11100
H3211       H  0.76682854  0.91324643  0.79113264     0.11200
H3212       H  0.77329154  0.85867131  0.79373137     0.13100
H3213       H  0.77601021  0.84210541  0.84178968     0.09600
H3214       H  0.77059539  0.84157999  0.89508026     0.11700
H3215       H  0.75466290  0.91431568  0.89027415     0.08300
H3216       H  0.75967771  0.91476834  0.83738938     0.11000
loop_ 
_geom_bond_atom_site_label_1 
_geom_bond_atom_site_label_2 
_geom_bond_distance 
_geom_bond_site_symmetry_2 
_ccdc_geom_bond_type 
C1            N2   1.363       .  A
C1            N6   1.360       .  A
C1          C379   1.490       .  S
N2            C3   1.362       .  A
C3            N4   1.359       .  A
C3           C75   1.471       .  S
N4            C5   1.357       .  A
C5            N6   1.358       .  A
C5          C205   1.468       .  S
C7            N8   1.360       .  A
C7           N12   1.359       .  A
C7          C390   1.486       .  S
N8            C9   1.360       .  A
C9           N10   1.358       .  A
C9          C199   1.463       .  S
N10          C11   1.356       .  A
C11          N12   1.356       .  A
C11          C81   1.465       .  S
C13          N14   1.360       .  A
C13          N18   1.361       .  A
C13         C366   1.488       .  S
N14          C15   1.359       .  A
C15          N16   1.357       .  A
C15         C137   1.467       .  S
N16          C17   1.358       .  A
C17          N18   1.360       .  A
C17         C228   1.466       .  S
C19          N20   1.361       .  A
C19          N24   1.359       .  A
C19         C355   1.487       .  S
N20          C21   1.361       .  A
C21          N22   1.359       .  A
C21         C143   1.466       .  S
N22          C23   1.357       .  A
C23          N24   1.356       .  A
C23         C222   1.465       .  S
C25          N26   1.363       .  A
C25          N30   1.359       .  A
C25         C342   1.493       .  S
N26          C27   1.363       .  A
C27          N28   1.359       .  A
C27         C160   1.469       .  S
N28          C29   1.356       .  A
C29          N30   1.358       .  A
C29         C104   1.466       .  S
C31          N32   1.360       .  A
C31          N36   1.362       .  A
C31         C331   1.493       .  S
N32          C33   1.358       .  A
C33          N34   1.358       .  A
C33         C166   1.470       .  S
N34          C35   1.360       .  A
C35          N36   1.363       .  A
C35          C98   1.471       .  S
C37          N38   1.362       .  A
C37          N42   1.359       .  A
C37         C307   1.487       .  S
N38          C39   1.361       .  A
C39          N40   1.359       .  A
C39         C157   1.470       .  S
N40          C41   1.357       .  A
C41          N42   1.357       .  A
C41         C208   1.468       .  S
C43          N44   1.359       .  A
C43          N48   1.361       .  A
C43         C318   1.486       .  S
N44          C45   1.357       .  A
C45          N46   1.357       .  A
C45         C163   1.466       .  S
N46          C47   1.358       .  A
C47          N48   1.360       .  A
C47         C202   1.467       .  S
C49          N50   1.362       .  A
C49          N54   1.359       .  A
C49         C283   1.485       .  S
N50          C51   1.360       .  A
C51          N52   1.359       .  A
C51          C84   1.472       .  S
N52          C53   1.359       .  A
C53          N54   1.357       .  A
C53         C140   1.467       .  S
C55          N56   1.361       .  A
C55          N60   1.358       .  A
C55         C294   1.484       .  S
N56          C57   1.361       .  A
C57          N58   1.359       .  A
C57         C146   1.466       .  S
N58          C59   1.356       .  A
C59          N60   1.354       .  A
C59          C78   1.465       .  S
C61          N62   1.361       .  A
C61          N66   1.358       .  A
C61         C259   1.485       .  S
N62          C63   1.361       .  A
C63          N64   1.358       .  A
C63         C101   1.468       .  S
N64          C65   1.357       .  A
C65          N66   1.355       .  A
C65         C219   1.463       .  S
C67          N68   1.360       .  A
C67          N72   1.358       .  A
C67         C270   1.483       .  S
N68          C69   1.359       .  A
C69          N70   1.357       .  A
C69         C225   1.465       .  S
N70          C71   1.357       .  A
C71          N72   1.357       .  A
C71          C95   1.463       .  S
O73         Zr85   2.452       .  S
O73          C75   1.289       .  A
O74        Zr111   2.432       .  S
O74          C75   1.288       .  A
O76        Zr490   2.444       .  S
O76          C78   1.288       .  A
O77        Zr112   2.427       .  S
O77         C480   1.286   1_554  A
C78         O479   1.285       .  A
O79        Zr490   2.445       .  S
O79          C81   1.288       .  A
O80        Zr111   2.432       .  S
O80         C483   1.287   1_554  A
C81         O482   1.285       .  A
O82         Zr85   2.453       .  S
O82          C84   1.290       .  A
O83        Zr112   2.428       .  S
O83          C84   1.287       .  A
Zr85         O86   2.434       .  S
Zr85         O87   2.438       .  S
Zr85         O91   2.381       .  S
Zr85         O92   2.377       .  S
Zr85        O115   2.368       .  S
Zr85        O117   2.369       .  S
O86         H129   0.990       .  S
O87         H128   0.990       .  S
O87         H132   0.990       .  S
Zr88        O478   2.442       .  S
Zr88        O481   2.440       .  S
Zr88         O89   2.436   1_556  S
Zr88        O492   2.434       .  S
Zr88         O92   2.374   1_556  S
Zr88         O91   2.377   1_556  S
Zr88        O518   2.369       .  S
Zr88        O520   2.370       .  S
O89         H130   0.990       .  S
O89         H535   0.990   1_554  S
O90        Zr490   2.434       .  S
O90         H123   0.990       .  S
O91        Zr111   2.387       .  S
O92        Zr112   2.387       .  S
O92         H119   0.967       .  S
O93        Zr105   2.438       .  S
O93          C95   1.287       .  A
O94        Zr112   2.422       .  S
O94          C95   1.285       .  A
O96        Zr510   2.441       .  S
O96          C98   1.287       .  A
O97        Zr111   2.434       .  S
O97         C500   1.288   1_554  A
C98         O499   1.289       .  A
O99        Zr510   2.440       .  S
O99         C101   1.287       .  A
O100       Zr112   2.429       .  S
O100        C503   1.287   1_554  A
C101        O502   1.287       .  A
O102       Zr105   2.434       .  S
O102        C104   1.286       .  A
O103       Zr111   2.433       .  S
O103        C104   1.288       .  A
Zr105       O106   2.434       .  S
Zr105       O107   2.434       .  S
Zr105       O113   2.371       .  S
Zr105       O114   2.372       .  S
Zr105       O117   2.368       .  S
Zr105       O115   2.369       .  S
O106        H126   0.990       .  S
O106        H131   0.990       .  S
O107        H127   0.990       .  S
Zr108       O498   2.442       .  S
Zr108       O501   2.447       .  S
Zr108       O109   2.436       .  S
Zr108       O512   2.435       .  S
Zr108       O114   2.377   1_556  S
Zr108       O113   2.375   1_556  S
Zr108       O520   2.371       .  S
Zr108       O518   2.367       .  S
O109        H125   0.990   1_556  S
O110       Zr510   2.436       .  S
O110        H124   0.990       .  S
O110        H134   0.990       .  S
Zr111       O114   2.383       .  S
Zr111       O117   2.388       .  S
Zr111       O518   2.387   1_554  S
Zr112       O113   2.387       .  S
Zr112       O115   2.383       .  S
Zr112       O520   2.383   1_554  S
O113        H121   0.966       .  S
O116       Zr490   2.370       .  S
O116       Zr510   2.369       .  S
O116       Zr513   2.385       .  S
O116        H120   0.966       .  S
O117        H122   0.966       .  S
O118       Zr490   2.371       .  S
O118       Zr510   2.371       .  S
O118       Zr514   2.383       .  S
H133        O491   0.990       .  S
O135      Zr2157   2.438   1_455  S
O135        C137   1.286       .  A
O136       Zr173   2.427       .  S
O136        C539   1.286   1_554  A
C137        O538   1.288       .  A
O138       Zr150   2.446       .  S
O138        C140   1.289       .  A
O139       Zr174   2.419       .  S
O139        C140   1.285       .  A
O141      Zr1758   2.446   1_455  S
O141        C143   1.288       .  A
O142       Zr173   2.425       .  S
O142        C143   1.286       .  A
O144       Zr549   2.446       .  S
O144        C146   1.288       .  A
O145       Zr174   2.430       .  S
O145        C548   1.287   1_554  A
C146        O547   1.285       .  A
Zr147      O2145   2.442       .  S
Zr147       O546   2.443       .  S
Zr147       O148   2.435   1_556  S
Zr147       O551   2.436       .  S
Zr147       O154   2.373   1_556  S
Zr147      O1761   2.377   1_556  S
Zr147       O579   2.369       .  S
Zr147      O2189   2.369       .  S
O148       H1799   0.990       .  S
O149       Zr549   2.437       .  S
O149        H194   0.990       .  S
O149       H1798   0.990       .  S
Zr150      O1749   2.448       .  S
Zr150       O151   2.433       .  S
Zr150       O152   2.433       .  S
Zr150       O154   2.372       .  S
Zr150       O180   2.369       .  S
Zr150      O1761   2.375       .  S
Zr150      O1786   2.371       .  S
O151        H192   0.990       .  S
O151        H195   0.990       .  S
O152       H1793   0.990       .  S
O153       Zr173   2.383       .  S
O153      Zr1755   2.376   1_454  S
O153      Zr1758   2.375   1_455  S
O154       Zr174   2.384       .  S
O154        H181   0.966       .  S
O155       Zr569   2.451       .  S
O155        C157   1.289       .  A
O156       Zr174   2.420       .  S
O156        C559   1.285   1_554  A
C157        O558   1.286       .  A
O158      Zr1778   2.446   1_455  S
O158        C160   1.288       .  A
O159       Zr173   2.429       .  S
O159        C160   1.287       .  A
O161       Zr170   2.445       .  S
O161        C163   1.288       .  A
O162       Zr174   2.424       .  S
O162        C163   1.286       .  A
O164      Zr2177   2.440   1_455  S
O164        C166   1.287       .  A
O165       Zr173   2.425       .  S
O165        C568   1.286   1_554  A
C166        O567   1.288       .  A
Zr167       O557   2.455       .  S
Zr167      O2174   2.442       .  S
Zr167       O168   2.434   1_556  S
Zr167       O571   2.434       .  S
Zr167       O175   2.372   1_556  S
Zr167      O1784   2.378   1_556  S
Zr167      O2189   2.371       .  S
Zr167       O579   2.367       .  S
O168        H188   0.990   1_554  S
O168        H595   0.990       .  S
O169       Zr569   2.434       .  S
O169        H189   0.990       .  S
Zr170      O1766   2.446       .  S
Zr170       O171   2.436       .  S
Zr170       O172   2.435       .  S
Zr170       O175   2.379       .  S
Zr170       O180   2.369       .  S
Zr170      O1784   2.378       .  S
Zr170      O1786   2.368       .  S
O171       H1795   0.990       .  S
O172        H186   0.990       .  S
O172        H196   0.990       .  S
Zr173       O176   2.382       .  S
Zr173       O178   2.382       .  S
Zr173       O581   2.387   1_554  S
Zr174       O175   2.387       .  S
Zr174       O180   2.384       .  S
Zr174       O579   2.378   1_554  S
O175        H183   0.965       .  S
O176      Zr1775   2.376   1_454  S
O176      Zr1778   2.377   1_455  S
O177       Zr549   2.369       .  S
O177       Zr569   2.368       .  S
O177       Zr576   2.381       .  S
O178      Zr1758   2.367   1_455  S
O178      Zr1778   2.366   1_455  S
O178        H182   0.965       .  S
O179      Zr2157   2.370   1_455  S
O179      Zr2177   2.369   1_455  S
O179       Zr575   2.385       .  S
O179        H184   0.964       .  S
H185       O1760   0.990   1_455  S
H187       O1779   0.990       .  S
H190       O1757   0.990   1_455  S
H191       O1756   0.990   1_455  S
H193        O570   0.990       .  S
O197       Zr611   2.441       .  S
O197        C199   1.287       .  A
O198       Zr235   2.431       .  S
O198        C601   1.287   1_554  A
C199        O600   1.286       .  A
O200      Zr1016   2.443   1_545  S
O200        C202   1.288       .  A
O201       Zr236   2.426       .  S
O201        C202   1.286       .  A
O203       Zr212   2.437       .  S
O203        C205   1.287       .  A
O204       Zr235   2.436       .  S
O204        C205   1.288       .  A
O206      Zr1415   2.438   1_545  S
O206        C208   1.287       .  A
O207       Zr236   2.428       .  S
O207        C610   1.286   1_554  A
C208        O609   1.287       .  A
Zr209       O599   2.444       .  S
Zr209      O1412   2.435       .  S
Zr209       O210   2.435       .  S
Zr209      O1417   2.436       .  S
Zr209       O215   2.377   1_556  S
Zr209      O1020   2.379   1_556  S
Zr209      O1445   2.367       .  S
Zr209       O643   2.364       .  S
O210        H253   0.990   1_556  S
O211      Zr1415   2.437       .  S
O211       H1056   0.990       .  S
O211       H1060   0.990       .  S
Zr212      O1004   2.446       .  S
Zr212       O213   2.433       .  S
Zr212      O1018   2.436       .  S
Zr212       O215   2.379       .  S
Zr212       O240   2.369       .  S
Zr212      O1020   2.373       .  S
Zr212      O1046   2.368       .  S
O213        H257   0.990       .  S
O213       H1058   0.990       .  S
O214      Zr1016   2.435       .  S
O214       H1051   0.990       .  S
O215       Zr235   2.383       .  S
O216       Zr236   2.386       .  S
O216      Zr1013   2.375   1_544  S
O216      Zr1016   2.377   1_545  S
O216        H243   0.967       .  S
O217      Zr1435   2.437   1_545  S
O217        C219   1.287       .  A
O218       Zr236   2.429       .  S
O218        C621   1.287   1_554  A
C219        O620   1.285       .  A
O220       Zr232   2.444       .  S
O220        C222   1.288       .  A
O221       Zr235   2.427       .  S
O221        C222   1.287       .  A
O223      Zr1036   2.443   1_545  S
O223        C225   1.287       .  A
O224       Zr236   2.421       .  S
O224        C225   1.285       .  A
O226       Zr631   2.444       .  S
O226        C228   1.288       .  A
O227       Zr235   2.434       .  S
O227        C630   1.288   1_554  A
C228        O629   1.286       .  A
Zr229      O1423   2.448       .  S
Zr229       O628   2.445       .  S
Zr229       O230   2.436   1_556  S
Zr229       O633   2.434       .  S
Zr229       O238   2.375   1_556  S
Zr229      O1041   2.373   1_556  S
Zr229       O643   2.370       .  S
Zr229      O1445   2.367       .  S
O230       H1054   0.990       .  S
O230        H657   0.990   1_554  S
O231       Zr631   2.434       .  S
O231       H1055   0.990       .  S
Zr232      O1027   2.443       .  S
Zr232       O233   2.435       .  S
Zr232       O234   2.436       .  S
Zr232       O238   2.378       .  S
Zr232       O240   2.366       .  S
Zr232      O1041   2.377       .  S
Zr232      O1046   2.367       .  S
O233        H249   0.990       .  S
O234        H258   0.990       .  S
O234       H1052   0.990       .  S
Zr235       O238   2.386       .  S
Zr235       O240   2.389       .  S
Zr235       O643   2.384   1_554  S
Zr236       O237   2.387       .  S
Zr236       O242   2.382       .  S
Zr236       O641   2.379   1_554  S
O237      Zr1033   2.372   1_544  S
O237      Zr1036   2.375   1_545  S
O237        H245   0.967       .  S
O239      Zr1415   2.368   1_545  S
O239      Zr1435   2.369   1_545  S
O239       Zr638   2.380       .  S
O240        H244   0.966       .  S
O241       Zr611   2.366       .  S
O241       Zr631   2.368       .  S
O241       Zr637   2.387       .  S
O241        H246   0.967       .  S
O242      Zr1016   2.368   1_545  S
O242      Zr1036   2.367   1_545  S
H247       O1018   0.990       .  S
H248       O1038   0.990   1_545  S
H250       O1034   0.990   1_545  S
H251       O1035   0.990       .  S
H252       O1015   0.990       .  S
H254       O1017   0.990   1_545  S
H255        O632   0.990       .  S
H256       O1015   0.990       .  S
C259        C260   1.407       .  A
C259        C264   1.406       .  A
C260        C261   1.395       .  A
C260        H273   1.083       .  S
C261        C262   1.402       .  A
C261        H274   1.084       .  S
C262        C263   1.409       .  A
C262        C265   1.488       .  S
C263        C264   1.401       .  A
C263        H275   1.081       .  S
C264        H276   1.083       .  S
C265        C266   1.348       .  D
C265        H277   1.082       .  S
C266        C267   1.493       .  S
C266        H278   1.084       .  S
C267        C268   1.404       .  A
C267        C272   1.411       .  A
C268        C269   1.398       .  A
C268        H279   1.083       .  S
C269        C270   1.406       .  A
C269        H280   1.083       .  S
C270        C271   1.404       .  A
C271        C272   1.398       .  A
C271        H281   1.083       .  S
C272        H282   1.079       .  S
C283        C284   1.407       .  A
C283        C288   1.405       .  A
C284        C285   1.397       .  A
C284        H297   1.083       .  S
C285        C286   1.403       .  A
C285        H298   1.083       .  S
C286        C287   1.410       .  A
C286        C289   1.490       .  S
C287        C288   1.399       .  A
C287        H299   1.080       .  S
C288        H300   1.083       .  S
C289        C290   1.346       .  D
C289        H301   1.085       .  S
C290        C291   1.484       .  S
C290        H302   1.084       .  S
C291        C292   1.400       .  A
C291        C296   1.409       .  A
C292        C293   1.394       .  A
C292        H303   1.084       .  S
C293        C294   1.407       .  A
C293        H304   1.083       .  S
C294        C295   1.407       .  A
C295        C296   1.402       .  A
C295        H305   1.083       .  S
C296        H306   1.082       .  S
C307        C308   1.407       .  A
C307        C312   1.406       .  A
C308        C309   1.397       .  A
C308        H321   1.083       .  S
C309        C310   1.403       .  A
C309        H322   1.084       .  S
C310        C311   1.410       .  A
C310        C313   1.490       .  S
C311        C312   1.401       .  A
C311        H323   1.081       .  S
C312        H324   1.083       .  S
C313        C314   1.348       .  D
C313        H325   1.084       .  S
C314        C315   1.489       .  S
C314        H326   1.084       .  S
C315        C316   1.403       .  A
C315        C320   1.409       .  A
C316        C317   1.397       .  A
C316        H327   1.084       .  S
C317        C318   1.406       .  A
C317        H328   1.083       .  S
C318        C319   1.407       .  A
C319        C320   1.401       .  A
C319        H329   1.083       .  S
C320        H330   1.081       .  S
C331        C332   1.407       .  A
C331        C336   1.408       .  A
C332        C333   1.399       .  A
C332        H345   1.083       .  S
C333        C334   1.404       .  A
C333        H346   1.083       .  S
C334        C335   1.411       .  A
C334        C337   1.498       .  S
C335        C336   1.406       .  A
C335        H347   1.081       .  S
C336        H348   1.083       .  S
C337        C338   1.352       .  D
C337        H349   1.082       .  S
C338        C339   1.502       .  S
C338        H350   1.084       .  S
C339        C340   1.405       .  A
C339        C344   1.413       .  A
C340        C341   1.400       .  A
C340        H351   1.083       .  S
C341        C342   1.407       .  A
C341        H352   1.083       .  S
C342        C343   1.407       .  A
C343        C344   1.404       .  A
C343        H353   1.083       .  S
C344        H354   1.079       .  S
C355        C356   1.407       .  A
C355        C360   1.407       .  A
C356        C357   1.396       .  A
C356        H369   1.083       .  S
C357        C358   1.403       .  A
C357        H370   1.084       .  S
C358        C359   1.410       .  A
C358        C361   1.491       .  S
C359        C360   1.402       .  A
C359        H371   1.081       .  S
C360        H372   1.083       .  S
C361        C362   1.349       .  D
C361        H373   1.084       .  S
C362        C363   1.491       .  S
C362        H374   1.084       .  S
C363        C364   1.404       .  A
C363        C368   1.409       .  A
C364        C365   1.399       .  A
C364        H375   1.083       .  S
C365        C366   1.407       .  A
C365        H376   1.083       .  S
C366        C367   1.406       .  A
C367        C368   1.400       .  A
C367        H377   1.083       .  S
C368        H378   1.081       .  S
C379        C380   1.408       .  A
C379        C384   1.407       .  A
C380        C381   1.399       .  A
C380        H393   1.083       .  S
C381        C382   1.403       .  A
C381        H394   1.084       .  S
C382        C383   1.410       .  A
C382        C385   1.493       .  S
C383        C384   1.402       .  A
C383        H395   1.081       .  S
C384        H396   1.083       .  S
C385        C386   1.349       .  D
C385        H397   1.083       .  S
C386        C387   1.493       .  S
C386        H398   1.084       .  S
C387        C388   1.403       .  A
C387        C392   1.411       .  A
C388        C389   1.396       .  A
C388        H399   1.083       .  S
C389        C390   1.406       .  A
C389        H400   1.083       .  S
C390        C391   1.406       .  A
C391        C392   1.402       .  A
C391        H401   1.083       .  S
C392        H402   1.080       .  S
C403        N404   1.361       .  A
C403        N408   1.361       .  A
C403        C781   1.489       .  S
N404        C405   1.361       .  A
C405        N406   1.359       .  A
C405        C477   1.468       .  S
N406        C407   1.358       .  A
C407        N408   1.359       .  A
C407        C607   1.470       .  S
C409        N410   1.362       .  A
C409        N414   1.360       .  A
C409        C792   1.489       .  S
N410        C411   1.362       .  A
C411        N412   1.358       .  A
C411        C601   1.468       .  S
N412        C413   1.356       .  A
C413        N414   1.358       .  A
C413        C483   1.467       .  S
C415        N416   1.359       .  A
C415        N420   1.362       .  A
C415        C768   1.490       .  S
N416        C417   1.357       .  A
C417        N418   1.357       .  A
C417        C539   1.465       .  S
N418        C419   1.358       .  A
C419        N420   1.362       .  A
C419        C630   1.469       .  S
C421        N422   1.361       .  A
C421        N426   1.360       .  A
C421        C757   1.488       .  S
N422        C423   1.360       .  A
C423        N424   1.357       .  A
C423        C545   1.462       .  S
N424        C425   1.355       .  A
C425        N426   1.358       .  A
C425        C624   1.465       .  S
C427        N428   1.363       .  A
C427        N432   1.357       .  A
C427        C744   1.488       .  S
N428        C429   1.363       .  A
C429        N430   1.359       .  A
C429        C562   1.470       .  S
N430        C431   1.356       .  A
C431        N432   1.354       .  A
C431        C506   1.460       .  S
C433        N434   1.360       .  A
C433        N438   1.362       .  A
C433        C733   1.490       .  S
N434        C435   1.357       .  A
C435        N436   1.357       .  A
C435        C568   1.466       .  S
N436        C437   1.358       .  A
C437        N438   1.363       .  A
C437        C500   1.469       .  S
C439        N440   1.361       .  A
C439        N444   1.360       .  A
C439        C709   1.485       .  S
N440        C441   1.360       .  A
C441        N442   1.359       .  A
C441        C559   1.470       .  S
N442        C443   1.358       .  A
C443        N444   1.357       .  A
C443        C610   1.469       .  S
C445        N446   1.359       .  A
C445        N450   1.359       .  A
C445        C720   1.482       .  S
N446        C447   1.358       .  A
C447        N448   1.357       .  A
C447        C565   1.464       .  S
N448        C449   1.358       .  A
C449        N450   1.358       .  A
C449        C604   1.464       .  S
C451        N452   1.361       .  A
C451        N456   1.359       .  A
C451        C685   1.487       .  S
N452        C453   1.360       .  A
C453        N454   1.359       .  A
C453        C486   1.469       .  S
N454        C455   1.358       .  A
C455        N456   1.358       .  A
C455        C542   1.467       .  S
C457        N458   1.363       .  A
C457        N462   1.360       .  A
C457        C696   1.491       .  S
N458        C459   1.363       .  A
C459        N460   1.359       .  A
C459        C548   1.469       .  S
N460        C461   1.356       .  A
C461        N462   1.357       .  A
C461        C480   1.467       .  S
C463        N464   1.362       .  A
C463        N468   1.360       .  A
C463        C661   1.488       .  S
N464        C465   1.362       .  A
C465        N466   1.359       .  A
C465        C503   1.470       .  S
N466        C467   1.357       .  A
C467        N468   1.357       .  A
C467        C621   1.468       .  S
C469        N470   1.360       .  A
C469        N474   1.359       .  A
C469        C672   1.484       .  S
N470        C471   1.359       .  A
C471        N472   1.358       .  A
C471        C627   1.465       .  S
N472        C473   1.357       .  A
C473        N474   1.357       .  A
C473        C497   1.464       .  S
O475       Zr487   2.450       .  S
O475        C477   1.289       .  A
O476       Zr513   2.426       .  S
O476        C477   1.287       .  A
O478        C480   1.287       .  A
O479       Zr514   2.421       .  S
O481        C483   1.287       .  A
O482       Zr513   2.422       .  S
O484       Zr487   2.449       .  S
O484        C486   1.289       .  A
O485       Zr514   2.426       .  S
O485        C486   1.286       .  A
Zr487       O488   2.433       .  S
Zr487       O489   2.438       .  S
Zr487       O493   2.381       .  S
Zr487       O494   2.378       .  S
Zr487       O517   2.367       .  S
Zr487       O519   2.366       .  S
O488        H531   0.990       .  S
O489        H530   0.990       .  S
O489        H534   0.990       .  S
Zr490       O491   2.436       .  S
Zr490       O494   2.374       .  S
Zr490       O493   2.374       .  S
O491        H532   0.990       .  S
O492        H525   0.990       .  S
O493       Zr513   2.385       .  S
O494       Zr514   2.386       .  S
O494        H521   0.966       .  S
O495       Zr507   2.439       .  S
O495        C497   1.287       .  A
O496       Zr514   2.422       .  S
O496        C497   1.285       .  A
O498        C500   1.287       .  A
O499       Zr513   2.438       .  S
O501        C503   1.288       .  A
O502       Zr514   2.431       .  S
O504       Zr507   2.438       .  S
O504        C506   1.287       .  A
O505       Zr513   2.419       .  S
O505        C506   1.285       .  A
Zr507       O508   2.435       .  S
Zr507       O509   2.434       .  S
Zr507       O515   2.372       .  S
Zr507       O516   2.373       .  S
Zr507       O519   2.366       .  S
Zr507       O517   2.368       .  S
O508        H528   0.990       .  S
O508        H533   0.990       .  S
O509        H529   0.990       .  S
Zr510       O511   2.434       .  S
Zr510       O516   2.375       .  S
Zr510       O515   2.375       .  S
O511        H527   0.990       .  S
O512        H526   0.990       .  S
O512        H536   0.990       .  S
Zr513       O516   2.381       .  S
Zr513       O519   2.387       .  S
Zr514       O515   2.384       .  S
Zr514       O517   2.381       .  S
O515        H523   0.966       .  S
O518        H522   0.966       .  S
O519        H524   0.966       .  S
O537      Zr1755   2.439   1_455  S
O537        C539   1.287       .  A
O538       Zr575   2.436       .  S
O540       Zr552   2.441       .  S
O540        C542   1.287       .  A
O541       Zr576   2.425       .  S
O541        C542   1.286       .  A
O543      Zr2160   2.441   1_455  S
O543        C545   1.287       .  A
O544       Zr575   2.423       .  S
O544        C545   1.286       .  A
O546        C548   1.287       .  A
O547       Zr576   2.419       .  S
Zr549      O1743   2.444       .  S
Zr549       O550   2.434       .  S
Zr549      O2163   2.378       .  S
Zr549       O556   2.375       .  S
Zr549      O1787   2.365       .  S
O550       H2201   0.990       .  S
O551       H2200   0.990       .  S
O551        H596   0.990       .  S
Zr552      O2151   2.445       .  S
Zr552       O553   2.436       .  S
Zr552       O554   2.434       .  S
Zr552       O556   2.375       .  S
Zr552      O2163   2.378       .  S
Zr552      O2188   2.366       .  S
Zr552       O582   2.368       .  S
O553        H594   0.990       .  S
O553        H597   0.990       .  S
O554       H2195   0.990       .  S
O555      Zr2157   2.375   1_455  S
O555      Zr2160   2.378   1_455  S
O555       Zr575   2.386       .  S
O556       Zr576   2.384       .  S
O556        H583   0.964       .  S
O557        C559   1.290       .  A
O558       Zr576   2.423       .  S
O560      Zr2180   2.448   1_455  S
O560        C562   1.288       .  A
O561       Zr575   2.429       .  S
O561        C562   1.287       .  A
O563       Zr572   2.440       .  S
O563        C565   1.287       .  A
O564       Zr576   2.424       .  S
O564        C565   1.286       .  A
O566      Zr1775   2.446   1_455  S
O566        C568   1.289       .  A
O567       Zr575   2.435       .  S
Zr569      O1772   2.442       .  S
Zr569       O570   2.435       .  S
Zr569       O577   2.371       .  S
Zr569      O2186   2.377       .  S
Zr569      O1787   2.373       .  S
O570        H590   0.990       .  S
O571        H591   0.990       .  S
Zr572      O2168   2.439       .  S
Zr572       O573   2.435       .  S
Zr572       O574   2.437       .  S
Zr572      O2186   2.376       .  S
Zr572       O577   2.375       .  S
Zr572       O582   2.368       .  S
Zr572      O2188   2.366       .  S
O573       H2197   0.990       .  S
O574        H588   0.990       .  S
O574        H598   0.990       .  S
Zr575       O578   2.381       .  S
Zr575       O580   2.389       .  S
Zr576       O577   2.385       .  S
Zr576       O582   2.381       .  S
O577        H585   0.966       .  S
O578      Zr2177   2.376   1_455  S
O578      Zr2180   2.378   1_455  S
O580      Zr2160   2.369   1_455  S
O580      Zr2180   2.361   1_455  S
O580        H584   0.965       .  S
O581      Zr1755   2.368   1_455  S
O581      Zr1775   2.370   1_455  S
O581        H586   0.964       .  S
H587       O2162   0.990       .  S
H589       O2181   0.990   1_455  S
H592       O2159   0.990   1_455  S
H593       O2158   0.990       .  S
O599        C601   1.287       .  A
O600       Zr637   2.421       .  S
O602      Zr1418   2.443   1_545  S
O602        C604   1.288       .  A
O603       Zr638   2.420       .  S
O603        C604   1.285       .  A
O605       Zr614   2.448       .  S
O605        C607   1.288       .  A
O606       Zr637   2.433       .  S
O606        C607   1.287       .  A
O608      Zr1013   2.444   1_545  S
O608        C610   1.288       .  A
O609       Zr638   2.431       .  S
Zr611      O1010   2.443       .  S
Zr611       O612   2.434       .  S
Zr611      O1015   2.439       .  S
Zr611       O617   2.379       .  S
Zr611      O1422   2.373       .  S
Zr611      O1043   2.369       .  S
O612        H655   0.990       .  S
O613      Zr1013   2.438       .  S
O613       H1458   0.990       .  S
O613       H1462   0.990       .  S
Zr614      O1406   2.441       .  S
Zr614       O615   2.435       .  S
Zr614      O1420   2.434       .  S
Zr614      O1422   2.377       .  S
Zr614       O617   2.378       .  S
Zr614       O642   2.365       .  S
Zr614      O1448   2.370       .  S
O615       H1460   0.990       .  S
O615        H659   0.990       .  S
O616      Zr1418   2.435       .  S
O616       H1453   0.990       .  S
O617       Zr637   2.384       .  S
O618      Zr1415   2.375   1_545  S
O618      Zr1418   2.373   1_545  S
O618       Zr638   2.386       .  S
O618        H645   0.966       .  S
O619      Zr1033   2.444   1_545  S
O619        C621   1.288       .  A
O620       Zr638   2.423       .  S
O622       Zr634   2.443       .  S
O622        C624   1.287       .  A
O623       Zr637   2.427       .  S
O623        C624   1.286       .  A
O625      Zr1438   2.440   1_545  S
O625        C627   1.287       .  A
O626       Zr638   2.425       .  S
O626        C627   1.286       .  A
O628        C630   1.288       .  A
O629       Zr637   2.426       .  S
Zr631      O1021   2.444       .  S
Zr631       O632   2.435       .  S
Zr631      O1443   2.374       .  S
Zr631       O640   2.377       .  S
Zr631      O1043   2.370       .  S
O632       H1456   0.990       .  S
O633       H1457   0.990       .  S
Zr634      O1429   2.448       .  S
Zr634       O635   2.435       .  S
Zr634       O636   2.436       .  S
Zr634       O640   2.379       .  S
Zr634      O1443   2.378       .  S
Zr634      O1448   2.370       .  S
Zr634       O642   2.366       .  S
O635        H651   0.990       .  S
O636       H1454   0.990       .  S
O636        H660   0.990       .  S
Zr637       O640   2.385       .  S
Zr637       O642   2.384       .  S
Zr638       O639   2.384       .  S
Zr638       O644   2.386       .  S
O639      Zr1435   2.369   1_545  S
O639      Zr1438   2.373   1_545  S
O639        H647   0.966       .  S
O641      Zr1013   2.366   1_545  S
O641      Zr1033   2.369   1_545  S
O642        H646   0.966       .  S
O643        H648   0.967       .  S
O644      Zr1418   2.370   1_545  S
O644      Zr1438   2.373   1_545  S
H649       O1420   0.990       .  S
H650       O1440   0.990   1_545  S
H652       O1436   0.990       .  S
H653       O1437   0.990       .  S
H654       O1417   0.990       .  S
H656       O1419   0.990       .  S
H658       O1417   0.990       .  S
C661        C662   1.407       .  A
C661        C666   1.407       .  A
C662        C663   1.397       .  A
C662        H675   1.083       .  S
C663        C664   1.402       .  A
C663        H676   1.084       .  S
C664        C665   1.409       .  A
C664        C667   1.489       .  S
C665        C666   1.402       .  A
C665        H677   1.081       .  S
C666        H678   1.083       .  S
C667        C668   1.347       .  D
C667        H679   1.084       .  S
C668        C669   1.490       .  S
C668        H680   1.085       .  S
C669        C670   1.403       .  A
C669        C674   1.410       .  A
C670        C671   1.396       .  A
C670        H681   1.083       .  S
C671        C672   1.406       .  A
C671        H682   1.083       .  S
C672        C673   1.406       .  A
C673        C674   1.400       .  A
C673        H683   1.083       .  S
C674        H684   1.081       .  S
C685        C686   1.407       .  A
C685        C690   1.406       .  A
C686        C687   1.399       .  A
C686        H699   1.083       .  S
C687        C688   1.404       .  A
C687        H700   1.083       .  S
C688        C689   1.410       .  A
C688        C691   1.494       .  S
C689        C690   1.400       .  A
C689        H701   1.080       .  S
C690        H702   1.083       .  S
C691        C692   1.349       .  D
C691        H703   1.085       .  S
C692        C693   1.490       .  S
C692        H704   1.083       .  S
C693        C694   1.402       .  A
C693        C698   1.410       .  A
C694        C695   1.397       .  A
C694        H705   1.084       .  S
C695        C696   1.407       .  A
C695        H706   1.083       .  S
C696        C697   1.408       .  A
C697        C698   1.404       .  A
C697        H707   1.083       .  S
C698        H708   1.081       .  S
C709        C710   1.406       .  A
C709        C714   1.405       .  A
C710        C711   1.397       .  A
C710        H723   1.083       .  S
C711        C712   1.404       .  A
C711        H724   1.084       .  S
C712        C713   1.411       .  A
C712        C715   1.493       .  S
C713        C714   1.399       .  A
C713        H725   1.079       .  S
C714        H726   1.083       .  S
C715        C716   1.349       .  D
C715        H727   1.084       .  S
C716        C717   1.490       .  S
C716        H728   1.082       .  S
C717        C718   1.404       .  A
C717        C722   1.409       .  A
C718        C719   1.397       .  A
C718        H729   1.083       .  S
C719        C720   1.405       .  A
C719        H730   1.083       .  S
C720        C721   1.405       .  A
C721        C722   1.398       .  A
C721        H731   1.083       .  S
C722        H732   1.080       .  S
C733        C734   1.407       .  A
C733        C738   1.407       .  A
C734        C735   1.398       .  A
C734        H747   1.083       .  S
C735        C736   1.403       .  A
C735        H748   1.083       .  S
C736        C737   1.411       .  A
C736        C739   1.494       .  S
C737        C738   1.404       .  A
C737        H749   1.080       .  S
C738        H750   1.083       .  S
C739        C740   1.349       .  D
C739        H751   1.084       .  S
C740        C741   1.493       .  S
C740        H752   1.084       .  S
C741        C742   1.402       .  A
C741        C746   1.411       .  A
C742        C743   1.397       .  A
C742        H753   1.084       .  S
C743        C744   1.408       .  A
C743        H754   1.083       .  S
C744        C745   1.406       .  A
C745        C746   1.403       .  A
C745        H755   1.083       .  S
C746        H756   1.081       .  S
C757        C758   1.406       .  A
C757        C762   1.407       .  A
C758        C759   1.397       .  A
C758        H771   1.083       .  S
C759        C760   1.404       .  A
C759        H772   1.083       .  S
C760        C761   1.411       .  A
C760        C763   1.494       .  S
C761        C762   1.403       .  A
C761        H773   1.080       .  S
C762        H774   1.083       .  S
C763        C764   1.350       .  D
C763        H775   1.083       .  S
C764        C765   1.495       .  S
C764        H776   1.083       .  S
C765        C766   1.404       .  A
C765        C770   1.411       .  A
C766        C767   1.399       .  A
C766        H777   1.083       .  S
C767        C768   1.408       .  A
C767        H778   1.083       .  S
C768        C769   1.406       .  A
C769        C770   1.402       .  A
C769        H779   1.083       .  S
C770        H780   1.080       .  S
C781        C782   1.406       .  A
C781        C786   1.408       .  A
C782        C783   1.398       .  A
C782        H795   1.083       .  S
C783        C784   1.403       .  A
C783        H796   1.083       .  S
C784        C785   1.409       .  A
C784        C787   1.492       .  S
C785        C786   1.402       .  A
C785        H797   1.081       .  S
C786        H798   1.083       .  S
C787        C788   1.349       .  D
C787        H799   1.084       .  S
C788        C789   1.493       .  S
C788        H800   1.085       .  S
C789        C790   1.403       .  A
C789        C794   1.410       .  A
C790        C791   1.399       .  A
C790        H801   1.083       .  S
C791        C792   1.407       .  A
C791        H802   1.083       .  S
C792        C793   1.407       .  A
C793        C794   1.401       .  A
C793        H803   1.083       .  S
C794        H804   1.081       .  S
C805        N806   1.361       .  A
C805        N810   1.359       .  A
C805       C1183   1.487       .  S
N806        C807   1.361       .  A
C807        N808   1.358       .  A
C807        C879   1.467       .  S
N808        C809   1.357       .  A
C809        N810   1.357       .  A
C809       C1009   1.465       .  S
C811        N812   1.361       .  A
C811        N816   1.359       .  A
C811       C1194   1.486       .  S
N812        C813   1.361       .  A
C813        N814   1.358       .  A
C813       C1003   1.465       .  S
N814        C815   1.356       .  A
C815        N816   1.357       .  A
C815        C885   1.464       .  S
C817        N818   1.359       .  A
C817        N822   1.362       .  A
C817       C1170   1.491       .  S
N818        C819   1.358       .  A
C819        N820   1.356       .  A
C819        C941   1.463       .  S
N820        C821   1.357       .  A
C821        N822   1.363       .  A
C821       C1032   1.468       .  S
C823        N824   1.362       .  A
C823        N828   1.360       .  A
C823       C1159   1.492       .  S
N824        C825   1.362       .  A
C825        N826   1.358       .  A
C825        C947   1.468       .  S
N826        C827   1.357       .  A
C827        N828   1.359       .  A
C827       C1026   1.467       .  S
C829        N830   1.362       .  A
C829        N834   1.360       .  A
C829       C1146   1.491       .  S
N830        C831   1.363       .  A
C831        N832   1.358       .  A
C831        C964   1.466       .  S
N832        C833   1.355       .  A
C833        N834   1.358       .  A
C833        C908   1.465       .  S
C835        N836   1.359       .  A
C835        N840   1.362       .  A
C835       C1135   1.489       .  S
N836        C837   1.357       .  A
C837        N838   1.356       .  A
C837        C970   1.466       .  S
N838        C839   1.358       .  A
C839        N840   1.363       .  A
C839        C902   1.468       .  S
C841        N842   1.360       .  A
C841        N846   1.359       .  A
C841       C1111   1.486       .  S
N842        C843   1.359       .  A
C843        N844   1.360       .  A
C843        C961   1.467       .  S
N844        C845   1.358       .  A
C845        N846   1.357       .  A
C845       C1012   1.468       .  S
C847        N848   1.359       .  A
C847        N852   1.362       .  A
C847       C1122   1.487       .  S
N848        C849   1.357       .  A
C849        N850   1.357       .  A
C849        C967   1.466       .  S
N850        C851   1.358       .  A
C851        N852   1.361       .  A
C851       C1006   1.468       .  S
C853        N854   1.361       .  A
C853        N858   1.359       .  A
C853       C1087   1.486       .  S
N854        C855   1.360       .  A
C855        N856   1.359       .  A
C855        C888   1.466       .  S
N856        C857   1.357       .  A
C857        N858   1.357       .  A
C857        C944   1.466       .  S
C859        N860   1.362       .  A
C859        N864   1.358       .  A
C859       C1098   1.486       .  S
N860        C861   1.361       .  A
C861        N862   1.359       .  A
C861        C950   1.467       .  S
N862        C863   1.356       .  A
C863        N864   1.355       .  A
C863        C882   1.464       .  S
C865        N866   1.361       .  A
C865        N870   1.358       .  A
C865       C1063   1.486       .  S
N866        C867   1.361       .  A
C867        N868   1.359       .  A
C867        C905   1.467       .  S
N868        C869   1.357       .  A
C869        N870   1.356       .  A
C869       C1023   1.465       .  S
C871        N872   1.362       .  A
C871        N876   1.358       .  A
C871       C1074   1.486       .  S
N872        C873   1.361       .  A
C873        N874   1.357       .  A
C873       C1029   1.466       .  S
N874        C875   1.356       .  A
C875        N876   1.356       .  A
C875        C899   1.460       .  S
O877       Zr889   2.443       .  S
O877        C879   1.287       .  A
O878       Zr915   2.431       .  S
O878        C879   1.288       .  A
O880      Zr1294   2.443       .  S
O880        C882   1.288       .  A
O881       Zr916   2.424       .  S
O881       C1284   1.286   1_554  A
C882       O1283   1.285       .  A
O883      Zr1294   2.438       .  S
O883        C885   1.287       .  A
O884       Zr915   2.432       .  S
O884       C1287   1.288   1_554  A
C885       O1286   1.287       .  A
O886       Zr889   2.445       .  S
O886        C888   1.288       .  A
O887       Zr916   2.420       .  S
O887        C888   1.285       .  A
Zr889       O890   2.436       .  S
Zr889       O891   2.437       .  S
Zr889       O895   2.378       .  S
Zr889       O896   2.376       .  S
Zr889       O919   2.369       .  S
Zr889       O921   2.369       .  S
O890        H933   0.990       .  S
O891        H932   0.990       .  S
O891        H936   0.990       .  S
Zr892      O1282   2.432       .  S
Zr892      O1285   2.438       .  S
Zr892       O893   2.434   1_556  S
Zr892      O1296   2.434       .  S
Zr892       O896   2.372   1_556  S
Zr892       O895   2.373   1_556  S
Zr892      O1322   2.366       .  S
Zr892      O1324   2.368       .  S
O893        H934   0.990   1_554  S
O893       H1339   0.990       .  S
O894      Zr1294   2.433       .  S
O894        H927   0.990       .  S
O895       Zr915   2.385       .  S
O896       Zr916   2.385       .  S
O896        H923   0.966       .  S
O897       Zr909   2.433       .  S
O897        C899   1.286       .  A
O898       Zr916   2.420       .  S
O898        C899   1.285       .  A
O900      Zr1314   2.443       .  S
O900        C902   1.288       .  A
O901       Zr915   2.429       .  S
O901       C1304   1.288   1_554  A
C902       O1303   1.288       .  A
O903      Zr1314   2.439       .  S
O903        C905   1.286       .  A
O904       Zr916   2.427       .  S
O904       C1307   1.287   1_554  A
C905       O1306   1.287       .  A
O906       Zr909   2.432       .  S
O906        C908   1.286       .  A
O907       Zr915   2.437       .  S
O907        C908   1.288       .  A
Zr909       O910   2.434       .  S
Zr909       O911   2.434       .  S
Zr909       O917   2.369       .  S
Zr909       O918   2.372       .  S
Zr909       O921   2.368       .  S
Zr909       O919   2.367       .  S
O910        H930   0.990       .  S
O910        H935   0.990       .  S
O911        H931   0.990       .  S
Zr912      O1302   2.440       .  S
Zr912      O1305   2.448       .  S
Zr912       O913   2.434       .  S
Zr912      O1316   2.436       .  S
Zr912       O918   2.378   1_556  S
Zr912       O917   2.372   1_556  S
Zr912      O1324   2.366       .  S
Zr912      O1322   2.364       .  S
O913        H929   0.990       .  S
O914      Zr1314   2.436       .  S
O914        H928   0.990       .  S
O914        H938   0.990       .  S
Zr915       O918   2.381       .  S
Zr915      O1322   2.386   1_554  S
Zr915       O921   2.386       .  S
Zr916       O917   2.382       .  S
Zr916       O919   2.382       .  S
Zr916      O1324   2.379   1_554  S
O917        H925   0.966       .  S
O920      Zr1294   2.369       .  S
O920      Zr1314   2.363       .  S
O920      Zr1317   2.385       .  S
O920        H924   0.966       .  S
O921        H926   0.966       .  S
O922      Zr1294   2.369       .  S
O922      Zr1314   2.370       .  S
O922      Zr1318   2.381       .  S
H937       O1295   0.990       .  S
O939      Zr2961   2.434   1_455  S
O939        C941   1.286       .  A
O940       Zr977   2.425       .  S
O940       C1343   1.286   1_554  A
C941       O1342   1.287       .  A
O942       Zr954   2.444       .  S
O942        C944   1.288       .  A
O943       Zr978   2.422       .  S
O943        C944   1.286       .  A
O945      Zr2562   2.446   1_455  S
O945        C947   1.288       .  A
O946       Zr977   2.429       .  S
O946        C947   1.287       .  A
O948      Zr1353   2.447       .  S
O948        C950   1.288       .  A
O949       Zr978   2.427       .  S
O949       C1352   1.287   1_554  A
C950       O1351   1.285       .  A
Zr951      O2949   2.441       .  S
Zr951      O1350   2.444       .  S
Zr951       O952   2.434       .  S
Zr951      O1355   2.437       .  S
Zr951      O2565   2.379   1_556  S
Zr951       O958   2.374   1_556  S
Zr951      O1383   2.369       .  S
Zr951      O2993   2.366       .  S
O952       H2603   0.990   1_556  S
O953      Zr1353   2.437       .  S
O953       H2602   0.990       .  S
O953        H998   0.990       .  S
Zr954      O2553   2.444       .  S
Zr954       O955   2.436       .  S
Zr954       O956   2.433       .  S
Zr954       O958   2.374       .  S
Zr954      O2565   2.377       .  S
Zr954      O2590   2.367       .  S
Zr954       O984   2.366       .  S
O955        H996   0.990       .  S
O955        H999   0.990       .  S
O956       H2597   0.990       .  S
O957      Zr2559   2.378   1_454  S
O957      Zr2562   2.376   1_455  S
O957       Zr977   2.384       .  S
O958       Zr978   2.386       .  S
O958        H985   0.965       .  S
O959      Zr1373   2.450       .  S
O959        C961   1.289       .  A
O960       Zr978   2.426       .  S
O960       C1363   1.287   1_554  A
C961       O1362   1.285       .  A
O962      Zr2582   2.441   1_455  S
O962        C964   1.287       .  A
O963       Zr977   2.427       .  S
O963        C964   1.287       .  A
O965       Zr974   2.438       .  S
O965        C967   1.287       .  A
O966       Zr978   2.429       .  S
O966        C967   1.287       .  A
O968      Zr2981   2.441   1_455  S
O968        C970   1.287       .  A
O969       Zr977   2.427       .  S
O969       C1372   1.286   1_554  A
C970       O1371   1.287       .  A
Zr971      O1361   2.444       .  S
Zr971      O2978   2.434       .  S
Zr971       O972   2.435   1_556  S
Zr971      O1375   2.433       .  S
Zr971       O979   2.368   1_556  S
Zr971      O2588   2.378   1_556  S
Zr971      O2993   2.370       .  S
Zr971      O1383   2.368       .  S
O972        H992   0.990   1_554  S
O972       H1399   0.990       .  S
O973      Zr1373   2.434       .  S
O973        H993   0.990       .  S
Zr974      O2570   2.445       .  S
Zr974       O975   2.433       .  S
Zr974       O976   2.435       .  S
Zr974      O2588   2.374       .  S
Zr974       O979   2.377       .  S
Zr974       O984   2.370       .  S
Zr974      O2590   2.362       .  S
O975       H2599   0.990       .  S
O976        H990   0.990       .  S
O976       H1000   0.990       .  S
Zr977       O980   2.383       .  S
Zr977       O982   2.382       .  S
Zr977      O1385   2.387   1_554  S
Zr978       O979   2.384       .  S
Zr978      O1383   2.379   1_554  S
Zr978       O984   2.382       .  S
O979        H987   0.966       .  S
O980      Zr2579   2.377   1_454  S
O980      Zr2582   2.375   1_455  S
O981      Zr1353   2.370       .  S
O981      Zr1373   2.370       .  S
O981      Zr1380   2.382       .  S
O982      Zr2562   2.367   1_455  S
O982      Zr2582   2.362   1_455  S
O982        H986   0.965       .  S
O983      Zr2961   2.367   1_455  S
O983      Zr2981   2.368   1_455  S
O983      Zr1379   2.387       .  S
O983        H988   0.964       .  S
H989       O2564   0.990   1_455  S
H991       O2583   0.990   1_455  S
H994       O2561   0.990   1_455  S
H995       O2560   0.990   1_556  S
H997       O1374   0.990       .  S
O1001     Zr1415   2.440       .  S
O1001      C1003   1.286       .  A
O1002     Zr1039   2.430       .  S
O1002      C1405   1.287   1_554  A
C1003      O1404   1.287       .  A
O1004      C1006   1.288       .  A
O1005     Zr1040   2.423       .  S
O1005      C1006   1.286       .  A
O1007     Zr1016   2.442       .  S
O1007      C1009   1.287       .  A
O1008     Zr1039   2.426       .  S
O1008      C1009   1.286       .  A
O1010      C1012   1.288       .  A
O1011     Zr1040   2.429       .  S
O1011      C1414   1.287   1_554  A
C1012      O1413   1.286       .  A
Zr1013     O1403   2.442       .  S
Zr1013     O1014   2.434       .  S
Zr1013     O1019   2.380   1_556  S
Zr1013     O1447   2.366       .  S
O1014      H1057   0.990   1_556  S
Zr1016     O1017   2.434       .  S
Zr1016     O1019   2.376       .  S
Zr1016     O1044   2.365       .  S
O1017      H1061   0.990       .  S
O1019     Zr1039   2.384       .  S
O1020     Zr1040   2.385       .  S
O1020      H1047   0.967       .  S
O1021      C1023   1.288       .  A
O1022     Zr1040   2.425       .  S
O1022      C1425   1.286   1_554  A
C1023      O1424   1.285       .  A
O1024     Zr1036   2.440       .  S
O1024      C1026   1.287       .  A
O1025     Zr1039   2.433       .  S
O1025      C1026   1.288       .  A
O1027      C1029   1.287       .  A
O1028     Zr1040   2.425       .  S
O1028      C1029   1.286       .  A
O1030     Zr1435   2.440       .  S
O1030      C1032   1.287       .  A
O1031     Zr1039   2.420       .  S
O1031      C1434   1.286   1_554  A
C1032      O1433   1.288       .  A
Zr1033     O1432   2.441       .  S
Zr1033     O1034   2.435   1_556  S
Zr1033     O1437   2.433       .  S
Zr1033     O1042   2.373   1_556  S
Zr1033     O1447   2.368       .  S
O1034      H1461   0.990   1_554  S
O1035     Zr1435   2.434       .  S
Zr1036     O1037   2.434       .  S
Zr1036     O1038   2.436       .  S
Zr1036     O1042   2.375       .  S
Zr1036     O1044   2.367       .  S
O1037      H1053   0.990       .  S
O1038      H1062   0.990   1_565  S
Zr1039     O1042   2.381       .  S
Zr1039     O1044   2.384       .  S
Zr1039     O1447   2.386   1_554  S
Zr1040     O1041   2.387       .  S
Zr1040     O1445   2.379   1_554  S
Zr1040     O1046   2.382       .  S
O1041      H1049   0.967       .  S
O1043     Zr1442   2.382       .  S
O1044      H1048   0.966       .  S
O1045     Zr1415   2.368       .  S
O1045     Zr1435   2.366       .  S
O1045     Zr1441   2.383       .  S
O1045      H1050   0.967       .  S
H1059      O1436   0.990       .  S
C1063      C1064   1.406       .  A
C1063      C1068   1.406       .  A
C1064      C1065   1.396       .  A
C1064      H1077   1.083       .  S
C1065      C1066   1.403       .  A
C1065      H1078   1.083       .  S
C1066      C1067   1.411       .  A
C1066      C1069   1.493       .  S
C1067      C1068   1.402       .  A
C1067      H1079   1.080       .  S
C1068      H1080   1.083       .  S
C1069      C1070   1.349       .  D
C1069      H1081   1.084       .  S
C1070      C1071   1.492       .  S
C1070      H1082   1.083       .  S
C1071      C1072   1.404       .  A
C1071      C1076   1.410       .  A
C1072      C1073   1.398       .  A
C1072      H1083   1.083       .  S
C1073      C1074   1.407       .  A
C1073      H1084   1.083       .  S
C1074      C1075   1.406       .  A
C1075      C1076   1.401       .  A
C1075      H1085   1.083       .  S
C1076      H1086   1.080       .  S
C1087      C1088   1.407       .  A
C1087      C1092   1.406       .  A
C1088      C1089   1.398       .  A
C1088      H1101   1.083       .  S
C1089      C1090   1.403       .  A
C1089      H1102   1.083       .  S
C1090      C1091   1.410       .  A
C1090      C1093   1.491       .  S
C1091      C1092   1.400       .  A
C1091      H1103   1.080       .  S
C1092      H1104   1.083       .  S
C1093      C1094   1.348       .  D
C1093      H1105   1.085       .  S
C1094      C1095   1.488       .  S
C1094      H1106   1.084       .  S
C1095      C1096   1.402       .  A
C1095      C1100   1.410       .  A
C1096      C1097   1.395       .  A
C1096      H1107   1.084       .  S
C1097      C1098   1.407       .  A
C1097      H1108   1.083       .  S
C1098      C1099   1.406       .  A
C1099      C1100   1.402       .  A
C1099      H1109   1.083       .  S
C1100      H1110   1.081       .  S
C1111      C1112   1.406       .  A
C1111      C1116   1.406       .  A
C1112      C1113   1.397       .  A
C1112      H1125   1.083       .  S
C1113      C1114   1.404       .  A
C1113      H1126   1.083       .  S
C1114      C1115   1.411       .  A
C1114      C1117   1.494       .  S
C1115      C1116   1.401       .  A
C1115      H1127   1.079       .  S
C1116      H1128   1.083       .  S
C1117      C1118   1.349       .  D
C1117      H1129   1.084       .  S
C1118      C1119   1.491       .  S
C1118      H1130   1.083       .  S
C1119      C1120   1.403       .  A
C1119      C1124   1.410       .  A
C1120      C1121   1.397       .  A
C1120      H1131   1.084       .  S
C1121      C1122   1.407       .  A
C1121      H1132   1.083       .  S
C1122      C1123   1.407       .  A
C1123      C1124   1.402       .  A
C1123      H1133   1.083       .  S
C1124      H1134   1.081       .  S
C1135      C1136   1.406       .  A
C1135      C1140   1.406       .  A
C1136      C1137   1.399       .  A
C1136      H1149   1.083       .  S
C1137      C1138   1.404       .  A
C1137      H1150   1.083       .  S
C1138      C1139   1.412       .  A
C1138      C1141   1.497       .  S
C1139      C1140   1.403       .  A
C1139      H1151   1.080       .  S
C1140      H1152   1.083       .  S
C1141      C1142   1.350       .  D
C1141      H1153   1.083       .  S
C1142      C1143   1.498       .  S
C1142      H1154   1.083       .  S
C1143      C1144   1.404       .  A
C1143      C1148   1.412       .  A
C1144      C1145   1.397       .  A
C1144      H1155   1.083       .  S
C1145      C1146   1.406       .  A
C1145      H1156   1.083       .  S
C1146      C1147   1.407       .  A
C1147      C1148   1.405       .  A
C1147      H1157   1.083       .  S
C1148      H1158   1.079       .  S
C1159      C1160   1.407       .  A
C1159      C1164   1.407       .  A
C1160      C1161   1.400       .  A
C1160      H1173   1.083       .  S
C1161      C1162   1.405       .  A
C1161      H1174   1.083       .  S
C1162      C1163   1.411       .  A
C1162      C1165   1.498       .  S
C1163      C1164   1.404       .  A
C1163      H1175   1.080       .  S
C1164      H1176   1.083       .  S
C1165      C1166   1.352       .  D
C1165      H1177   1.084       .  S
C1166      C1167   1.497       .  S
C1166      H1178   1.083       .  S
C1167      C1168   1.405       .  A
C1167      C1172   1.411       .  A
C1168      C1169   1.400       .  A
C1168      H1179   1.083       .  S
C1169      C1170   1.407       .  A
C1169      H1180   1.083       .  S
C1170      C1171   1.407       .  A
C1171      C1172   1.404       .  A
C1171      H1181   1.083       .  S
C1172      H1182   1.080       .  S
C1183      C1184   1.406       .  A
C1183      C1188   1.406       .  A
C1184      C1185   1.397       .  A
C1184      H1197   1.083       .  S
C1185      C1186   1.404       .  A
C1185      H1198   1.083       .  S
C1186      C1187   1.411       .  A
C1186      C1189   1.494       .  S
C1187      C1188   1.401       .  A
C1187      H1199   1.079       .  S
C1188      H1200   1.083       .  S
C1189      C1190   1.349       .  D
C1189      H1201   1.084       .  S
C1190      C1191   1.490       .  S
C1190      H1202   1.082       .  S
C1191      C1192   1.403       .  A
C1191      C1196   1.410       .  A
C1192      C1193   1.397       .  A
C1192      H1203   1.083       .  S
C1193      C1194   1.406       .  A
C1193      H1204   1.083       .  S
C1194      C1195   1.407       .  A
C1195      C1196   1.401       .  A
C1195      H1205   1.083       .  S
C1196      H1206   1.081       .  S
C1207      N1208   1.362       .  A
C1207      N1212   1.359       .  A
C1207      C1585   1.490       .  S
N1208      C1209   1.362       .  A
C1209      N1210   1.358       .  A
C1209      C1281   1.467       .  S
N1210      C1211   1.356       .  A
C1211      N1212   1.357       .  A
C1211      C1411   1.463       .  S
C1213      N1214   1.361       .  A
C1213      N1218   1.360       .  A
C1213      C1596   1.489       .  S
N1214      C1215   1.361       .  A
C1215      N1216   1.357       .  A
C1215      C1405   1.466       .  S
N1216      C1217   1.356       .  A
C1217      N1218   1.359       .  A
C1217      C1287   1.465       .  S
C1219      N1220   1.358       .  A
C1219      N1224   1.360       .  A
C1219      C1572   1.487       .  S
N1220      C1221   1.357       .  A
C1221      N1222   1.355       .  A
C1221      C1343   1.461       .  S
N1222      C1223   1.357       .  A
C1223      N1224   1.360       .  A
C1223      C1434   1.462       .  S
C1225      N1226   1.361       .  A
C1225      N1230   1.360       .  A
C1225      C1561   1.488       .  S
N1226      C1227   1.361       .  A
C1227      N1228   1.358       .  A
C1227      C1349   1.468       .  S
N1228      C1229   1.357       .  A
C1229      N1230   1.358       .  A
C1229      C1428   1.466       .  S
C1231      N1232   1.362       .  A
C1231      N1236   1.359       .  A
C1231      C1548   1.489       .  S
N1232      C1233   1.362       .  A
C1233      N1234   1.358       .  A
C1233      C1366   1.468       .  S
N1234      C1235   1.357       .  A
C1235      N1236   1.357       .  A
C1235      C1310   1.465       .  S
C1237      N1238   1.359       .  A
C1237      N1242   1.361       .  A
C1237      C1537   1.487       .  S
N1238      C1239   1.357       .  A
C1239      N1240   1.356       .  A
C1239      C1372   1.464       .  S
N1240      C1241   1.358       .  A
C1241      N1242   1.362       .  A
C1241      C1304   1.465       .  S
C1243      N1244   1.362       .  A
C1243      N1248   1.360       .  A
C1243      C1513   1.488       .  S
N1244      C1245   1.361       .  A
C1245      N1246   1.358       .  A
C1245      C1363   1.467       .  S
N1246      C1247   1.356       .  A
C1247      N1248   1.357       .  A
C1247      C1414   1.465       .  S
C1249      N1250   1.359       .  A
C1249      N1254   1.359       .  A
C1249      C1524   1.484       .  S
N1250      C1251   1.357       .  A
C1251      N1252   1.356       .  A
C1251      C1369   1.463       .  S
N1252      C1253   1.358       .  A
C1253      N1254   1.358       .  A
C1253      C1408   1.462       .  S
C1255      N1256   1.362       .  A
C1255      N1260   1.358       .  A
C1255      C1489   1.486       .  S
N1256      C1257   1.361       .  A
C1257      N1258   1.359       .  A
C1257      C1290   1.469       .  S
N1258      C1259   1.357       .  A
C1259      N1260   1.356       .  A
C1259      C1346   1.464       .  S
C1261      N1262   1.363       .  A
C1261      N1266   1.358       .  A
C1261      C1500   1.488       .  S
N1262      C1263   1.362       .  A
C1263      N1264   1.358       .  A
C1263      C1352   1.469       .  S
N1264      C1265   1.355       .  A
C1265      N1266   1.356       .  A
C1265      C1284   1.462       .  S
C1267      N1268   1.361       .  A
C1267      N1272   1.360       .  A
C1267      C1465   1.487       .  S
N1268      C1269   1.360       .  A
C1269      N1270   1.359       .  A
C1269      C1307   1.470       .  S
N1270      C1271   1.358       .  A
C1271      N1272   1.358       .  A
C1271      C1425   1.469       .  S
C1273      N1274   1.363       .  A
C1273      N1278   1.357       .  A
C1273      C1476   1.486       .  S
N1274      C1275   1.362       .  A
C1275      N1276   1.358       .  A
C1275      C1431   1.469       .  S
N1276      C1277   1.356       .  A
C1277      N1278   1.355       .  A
C1277      C1301   1.462       .  S
O1279     Zr1291   2.448       .  S
O1279      C1281   1.288       .  A
O1280     Zr1317   2.428       .  S
O1280      C1281   1.287       .  A
O1282      C1284   1.286       .  A
O1283     Zr1318   2.419       .  S
O1285      C1287   1.287       .  A
O1286     Zr1317   2.429       .  S
O1288     Zr1291   2.447       .  S
O1288      C1290   1.288       .  A
O1289     Zr1318   2.425       .  S
O1289      C1290   1.286       .  A
Zr1291     O1292   2.434       .  S
Zr1291     O1293   2.437       .  S
Zr1291     O1297   2.375       .  S
Zr1291     O1298   2.375       .  S
Zr1291     O1321   2.370       .  S
Zr1291     O1323   2.371       .  S
O1292      H1335   0.990       .  S
O1293      H1334   0.990       .  S
O1293      H1338   0.990       .  S
Zr1294     O1295   2.434       .  S
Zr1294     O1298   2.370       .  S
Zr1294     O1297   2.373       .  S
O1295      H1336   0.990       .  S
O1296      H1329   0.990       .  S
O1297     Zr1317   2.383       .  S
O1298     Zr1318   2.385       .  S
O1298      H1325   0.966       .  S
O1299     Zr1311   2.439       .  S
O1299      C1301   1.287       .  A
O1300     Zr1318   2.418       .  S
O1300      C1301   1.284       .  A
O1302      C1304   1.287       .  A
O1303     Zr1317   2.430       .  S
O1305      C1307   1.289       .  A
O1306     Zr1318   2.428       .  S
O1308     Zr1311   2.440       .  S
O1308      C1310   1.287       .  A
O1309     Zr1317   2.428       .  S
O1309      C1310   1.287       .  A
Zr1311     O1312   2.434       .  S
Zr1311     O1313   2.434       .  S
Zr1311     O1319   2.371       .  S
Zr1311     O1320   2.376       .  S
Zr1311     O1323   2.366       .  S
Zr1311     O1321   2.366       .  S
O1312      H1332   0.990       .  S
O1312      H1337   0.990       .  S
O1313      H1333   0.990       .  S
Zr1314     O1315   2.436       .  S
Zr1314     O1320   2.379       .  S
Zr1314     O1319   2.376       .  S
O1315      H1331   0.990       .  S
O1316      H1330   0.990       .  S
O1316      H1340   0.990       .  S
Zr1317     O1320   2.383       .  S
Zr1317     O1323   2.387       .  S
Zr1318     O1319   2.382       .  S
Zr1318     O1321   2.381       .  S
O1319      H1327   0.966       .  S
O1322      H1326   0.966       .  S
O1323      H1328   0.966       .  S
O1341     Zr2559   2.435   1_455  S
O1341      C1343   1.286       .  A
O1342     Zr1379   2.429       .  S
O1344     Zr1356   2.440       .  S
O1344      C1346   1.287       .  A
O1345     Zr1380   2.421       .  S
O1345      C1346   1.285       .  A
O1347     Zr2964   2.452   1_455  S
O1347      C1349   1.289       .  A
O1348     Zr1379   2.426       .  S
O1348      C1349   1.286       .  A
O1350      C1352   1.288       .  A
O1351     Zr1380   2.421       .  S
Zr1353     O2547   2.443       .  S
Zr1353     O1354   2.435       .  S
Zr1353     O2967   2.377       .  S
Zr1353     O1360   2.373       .  S
Zr1353     O2591   2.370       .  S
O1354      H3005   0.990       .  S
O1355      H3004   0.990       .  S
O1355      H1400   0.990       .  S
Zr1356     O2955   2.448       .  S
Zr1356     O1357   2.433       .  S
Zr1356     O1358   2.434       .  S
Zr1356     O1360   2.374       .  S
Zr1356     O2967   2.373       .  S
Zr1356     O2992   2.367       .  S
Zr1356     O1386   2.369       .  S
O1357      H1398   0.990       .  S
O1357      H1401   0.990       .  S
O1358      H2999   0.990       .  S
O1359     Zr2961   2.379   1_455  S
O1359     Zr2964   2.375   1_455  S
O1359     Zr1379   2.385       .  S
O1360     Zr1380   2.385       .  S
O1360      H1387   0.966       .  S
O1361      C1363   1.288       .  A
O1362     Zr1380   2.418       .  S
O1364     Zr2984   2.443   1_455  S
O1364      C1366   1.287       .  A
O1365     Zr1379   2.431       .  S
O1365      C1366   1.288       .  A
O1367     Zr1376   2.436       .  S
O1367      C1369   1.286       .  A
O1368     Zr1380   2.425       .  S
O1368      C1369   1.286       .  A
O1370     Zr2579   2.441   1_455  S
O1370      C1372   1.287       .  A
O1371     Zr1379   2.431       .  S
Zr1373     O2576   2.445       .  S
Zr1373     O1374   2.433       .  S
Zr1373     O1381   2.370       .  S
Zr1373     O2990   2.377       .  S
Zr1373     O2591   2.368       .  S
O1374      H1394   0.990       .  S
O1375      H1395   0.990       .  S
Zr1376     O2972   2.441       .  S
Zr1376     O1377   2.435       .  S
Zr1376     O1378   2.435       .  S
Zr1376     O2990   2.376       .  S
Zr1376     O1381   2.374       .  S
Zr1376     O1386   2.367       .  S
Zr1376     O2992   2.365       .  S
O1377      H3001   0.990       .  S
O1378      H1392   0.990       .  S
O1378      H1402   0.990       .  S
Zr1379     O1382   2.385       .  S
Zr1379     O1384   2.385       .  S
Zr1380     O1381   2.383       .  S
Zr1380     O1386   2.380       .  S
O1381      H1389   0.965       .  S
O1382     Zr2981   2.380   1_455  S
O1382     Zr2984   2.377   1_455  S
O1384     Zr2964   2.368   1_455  S
O1384     Zr2984   2.365   1_455  S
O1384      H1388   0.965       .  S
O1385     Zr2559   2.369   1_455  S
O1385     Zr2579   2.368   1_455  S
O1385      H1390   0.964       .  S
H1391      O2966   0.990       .  S
H1393      O2985   0.990   1_455  S
H1396      O2963   0.990   1_455  S
H1397      O2962   0.990       .  S
O1403      C1405   1.287       .  A
O1404     Zr1441   2.427       .  S
O1406      C1408   1.287       .  A
O1407     Zr1442   2.414       .  S
O1407      C1408   1.284       .  A
O1409     Zr1418   2.437       .  S
O1409      C1411   1.287       .  A
O1410     Zr1441   2.425       .  S
O1410      C1411   1.286       .  A
O1412      C1414   1.286       .  A
O1413     Zr1442   2.429       .  S
Zr1415     O1416   2.435       .  S
Zr1415     O1421   2.375       .  S
O1416      H1459   0.990       .  S
Zr1418     O1419   2.434       .  S
Zr1418     O1421   2.376       .  S
Zr1418     O1446   2.367       .  S
O1419      H1463   0.990       .  S
O1421     Zr1441   2.384       .  S
O1422     Zr1442   2.387       .  S
O1422      H1449   0.967       .  S
O1423      C1425   1.289       .  A
O1424     Zr1442   2.421       .  S
O1426     Zr1438   2.445       .  S
O1426      C1428   1.288       .  A
O1427     Zr1441   2.426       .  S
O1427      C1428   1.286       .  A
O1429      C1431   1.288       .  A
O1430     Zr1442   2.426       .  S
O1430      C1431   1.286       .  A
O1432      C1434   1.287       .  A
O1433     Zr1441   2.433       .  S
Zr1435     O1436   2.434       .  S
Zr1435     O1444   2.375       .  S
Zr1438     O1439   2.434       .  S
Zr1438     O1440   2.436       .  S
Zr1438     O1444   2.377       .  S
Zr1438     O1446   2.363       .  S
O1439      H1455   0.990       .  S
O1440      H1464   0.990       .  S
Zr1441     O1444   2.381       .  S
Zr1441     O1446   2.387       .  S
Zr1442     O1443   2.387       .  S
Zr1442     O1448   2.383       .  S
O1443      H1451   0.967       .  S
O1446      H1450   0.966       .  S
O1447      H1452   0.967       .  S
C1465      C1466   1.407       .  A
C1465      C1470   1.407       .  A
C1466      C1467   1.398       .  A
C1466      H1479   1.083       .  S
C1467      C1468   1.403       .  A
C1467      H1480   1.083       .  S
C1468      C1469   1.409       .  A
C1468      C1471   1.489       .  S
C1469      C1470   1.400       .  A
C1469      H1481   1.081       .  S
C1470      H1482   1.083       .  S
C1471      C1472   1.348       .  D
C1471      H1483   1.085       .  S
C1472      C1473   1.488       .  S
C1472      H1484   1.084       .  S
C1473      C1474   1.403       .  A
C1473      C1478   1.409       .  A
C1474      C1475   1.397       .  A
C1474      H1485   1.084       .  S
C1475      C1476   1.408       .  A
C1475      H1486   1.083       .  S
C1476      C1477   1.405       .  A
C1477      C1478   1.400       .  A
C1477      H1487   1.083       .  S
C1478      H1488   1.081       .  S
C1489      C1490   1.407       .  A
C1489      C1494   1.406       .  A
C1490      C1491   1.398       .  A
C1490      H1503   1.083       .  S
C1491      C1492   1.403       .  A
C1491      H1504   1.084       .  S
C1492      C1493   1.409       .  A
C1492      C1495   1.491       .  S
C1493      C1494   1.400       .  A
C1493      H1505   1.081       .  S
C1494      H1506   1.083       .  S
C1495      C1496   1.349       .  D
C1495      H1507   1.084       .  S
C1496      C1497   1.490       .  S
C1496      H1508   1.084       .  S
C1497      C1498   1.403       .  A
C1497      C1502   1.409       .  A
C1498      C1499   1.398       .  A
C1498      H1509   1.084       .  S
C1499      C1500   1.408       .  A
C1499      H1510   1.083       .  S
C1500      C1501   1.406       .  A
C1501      C1502   1.401       .  A
C1501      H1511   1.083       .  S
C1502      H1512   1.080       .  S
C1513      C1514   1.407       .  A
C1513      C1518   1.406       .  A
C1514      C1515   1.398       .  A
C1514      H1527   1.083       .  S
C1515      C1516   1.403       .  A
C1515      H1528   1.083       .  S
C1516      C1517   1.410       .  A
C1516      C1519   1.493       .  S
C1517      C1518   1.401       .  A
C1517      H1529   1.080       .  S
C1518      H1530   1.083       .  S
C1519      C1520   1.349       .  D
C1519      H1531   1.083       .  S
C1520      C1521   1.492       .  S
C1520      H1532   1.083       .  S
C1521      C1522   1.404       .  A
C1521      C1526   1.410       .  A
C1522      C1523   1.397       .  A
C1522      H1533   1.083       .  S
C1523      C1524   1.405       .  A
C1523      H1534   1.083       .  S
C1524      C1525   1.406       .  A
C1525      C1526   1.400       .  A
C1525      H1535   1.083       .  S
C1526      H1536   1.080       .  S
C1537      C1538   1.406       .  A
C1537      C1542   1.407       .  A
C1538      C1539   1.397       .  A
C1538      H1551   1.083       .  S
C1539      C1540   1.404       .  A
C1539      H1552   1.083       .  S
C1540      C1541   1.411       .  A
C1540      C1543   1.494       .  S
C1541      C1542   1.403       .  A
C1541      H1553   1.080       .  S
C1542      H1554   1.083       .  S
C1543      C1544   1.350       .  D
C1543      H1555   1.082       .  S
C1544      C1545   1.497       .  S
C1544      H1556   1.084       .  S
C1545      C1546   1.404       .  A
C1545      C1550   1.412       .  A
C1546      C1547   1.398       .  A
C1546      H1557   1.083       .  S
C1547      C1548   1.406       .  A
C1547      H1558   1.083       .  S
C1548      C1549   1.406       .  A
C1549      C1550   1.402       .  A
C1549      H1559   1.083       .  S
C1550      H1560   1.079       .  S
C1561      C1562   1.406       .  A
C1561      C1566   1.407       .  A
C1562      C1563   1.397       .  A
C1562      H1575   1.083       .  S
C1563      C1564   1.404       .  A
C1563      H1576   1.083       .  S
C1564      C1565   1.410       .  A
C1564      C1567   1.492       .  S
C1565      C1566   1.402       .  A
C1565      H1577   1.080       .  S
C1566      H1578   1.083       .  S
C1567      C1568   1.350       .  D
C1567      H1579   1.082       .  S
C1568      C1569   1.495       .  S
C1568      H1580   1.084       .  S
C1569      C1570   1.404       .  A
C1569      C1574   1.411       .  A
C1570      C1571   1.398       .  A
C1570      H1581   1.083       .  S
C1571      C1572   1.406       .  A
C1571      H1582   1.083       .  S
C1572      C1573   1.406       .  A
C1573      C1574   1.401       .  A
C1573      H1583   1.083       .  S
C1574      H1584   1.079       .  S
C1585      C1586   1.407       .  A
C1585      C1590   1.407       .  A
C1586      C1587   1.398       .  A
C1586      H1599   1.083       .  S
C1587      C1588   1.404       .  A
C1587      H1600   1.083       .  S
C1588      C1589   1.410       .  A
C1588      C1591   1.494       .  S
C1589      C1590   1.403       .  A
C1589      H1601   1.080       .  S
C1590      H1602   1.083       .  S
C1591      C1592   1.350       .  D
C1591      H1603   1.084       .  S
C1592      C1593   1.495       .  S
C1592      H1604   1.084       .  S
C1593      C1594   1.404       .  A
C1593      C1598   1.410       .  A
C1594      C1595   1.398       .  A
C1594      H1605   1.083       .  S
C1595      C1596   1.406       .  A
C1595      H1606   1.083       .  S
C1596      C1597   1.407       .  A
C1597      C1598   1.402       .  A
C1597      H1607   1.083       .  S
C1598      H1608   1.080       .  S
C1609      N1610   1.363       .  A
C1609      N1614   1.360       .  A
C1609      C1987   1.493       .  S
N1610      C1611   1.364       .  A
C1611      N1612   1.359       .  A
C1611      C1683   1.472       .  S
N1612      C1613   1.357       .  A
C1613      N1614   1.357       .  A
C1613      C1813   1.468       .  S
C1615      N1616   1.360       .  A
C1615      N1620   1.361       .  A
C1615      C1998   1.490       .  S
N1616      C1617   1.360       .  A
C1617      N1618   1.357       .  A
C1617      C1807   1.462       .  S
N1618      C1619   1.356       .  A
C1619      N1620   1.360       .  A
C1619      C1689   1.466       .  S
C1621      N1622   1.361       .  A
C1621      N1626   1.361       .  A
C1621      C1974   1.491       .  S
N1622      C1623   1.360       .  A
C1623      N1624   1.356       .  A
C1623      C1745   1.469       .  S
N1624      C1625   1.358       .  A
C1625      N1626   1.361       .  A
C1625      C1836   1.465       .  S
C1627      N1628   1.362       .  A
C1627      N1632   1.360       .  A
C1627      C1963   1.492       .  S
N1628      C1629   1.362       .  A
C1629      N1630   1.359       .  A
C1629      C1751   1.470       .  S
N1630      C1631   1.357       .  A
C1631      N1632   1.358       .  A
C1631      C1830   1.467       .  S
C1633      N1634   1.363       .  A
C1633      N1638   1.359       .  A
C1633      C1950   1.492       .  S
N1634      C1635   1.364       .  A
C1635      N1636   1.358       .  A
C1635      C1768   1.469       .  S
N1636      C1637   1.355       .  A
C1637      N1638   1.357       .  A
C1637      C1712   1.464       .  S
C1639      N1640   1.360       .  A
C1639      N1644   1.362       .  A
C1639      C1939   1.491       .  S
N1640      C1641   1.358       .  A
C1641      N1642   1.358       .  A
C1641      C1774   1.468       .  S
N1642      C1643   1.359       .  A
C1643      N1644   1.362       .  A
C1643      C1706   1.471       .  S
C1645      N1646   1.362       .  A
C1645      N1650   1.357       .  A
C1645      C1915   1.484       .  S
N1646      C1647   1.361       .  A
C1647      N1648   1.359       .  A
C1647      C1765   1.469       .  S
N1648      C1649   1.357       .  A
C1649      N1650   1.355       .  A
C1649      C1816   1.463       .  S
C1651      N1652   1.360       .  A
C1651      N1656   1.361       .  A
C1651      C1926   1.485       .  S
N1652      C1653   1.357       .  A
C1653      N1654   1.358       .  A
C1653      C1771   1.468       .  S
N1654      C1655   1.359       .  A
C1655      N1656   1.360       .  A
C1655      C1810   1.468       .  S
C1657      N1658   1.361       .  A
C1657      N1662   1.358       .  A
C1657      C1891   1.485       .  S
N1658      C1659   1.361       .  A
C1659      N1660   1.358       .  A
C1659      C1692   1.467       .  S
N1660      C1661   1.357       .  A
C1661      N1662   1.355       .  A
C1661      C1748   1.464       .  S
C1663      N1664   1.363       .  A
C1663      N1668   1.358       .  A
C1663      C1902   1.486       .  S
N1664      C1665   1.362       .  A
C1665      N1666   1.358       .  A
C1665      C1754   1.467       .  S
N1666      C1667   1.355       .  A
C1667      N1668   1.356       .  A
C1667      C1686   1.463       .  S
C1669      N1670   1.362       .  A
C1669      N1674   1.358       .  A
C1669      C1867   1.487       .  S
N1670      C1671   1.361       .  A
C1671      N1672   1.358       .  A
C1671      C1709   1.468       .  S
N1672      C1673   1.357       .  A
C1673      N1674   1.356       .  A
C1673      C1827   1.464       .  S
C1675      N1676   1.361       .  A
C1675      N1680   1.360       .  A
C1675      C1878   1.489       .  S
N1676      C1677   1.361       .  A
C1677      N1678   1.357       .  A
C1677      C1833   1.466       .  S
N1678      C1679   1.356       .  A
C1679      N1680   1.358       .  A
C1679      C1703   1.466       .  S
O1681     Zr1693   2.452       .  S
O1681      C1683   1.289       .  A
O1682     Zr1719   2.433       .  S
O1682      C1683   1.288       .  A
O1684     Zr2098   2.433       .  S
O1684      C1686   1.286       .  A
O1685     Zr1720   2.424       .  S
O1685      C2088   1.286   1_554  A
C1686      O2087   1.286       .  A
O1687     Zr2098   2.434       .  S
O1687      C1689   1.286       .  A
O1688     Zr1719   2.427       .  S
O1688      C2091   1.287   1_554  A
C1689      O2090   1.288       .  A
O1690     Zr1693   2.445       .  S
O1690      C1692   1.288       .  A
O1691     Zr1720   2.424       .  S
O1691      C1692   1.286       .  A
Zr1693     O1694   2.435       .  S
Zr1693     O1695   2.436       .  S
Zr1693     O1699   2.377       .  S
Zr1693     O1700   2.377       .  S
Zr1693     O1723   2.370       .  S
Zr1693     O1725   2.366       .  S
O1694      H1737   0.990       .  S
O1695      H1736   0.990       .  S
O1695      H1740   0.990       .  S
Zr1696     O2086   2.440       .  S
Zr1696     O2089   2.438       .  S
Zr1696     O1697   2.433   1_556  S
Zr1696     O2100   2.434       .  S
Zr1696     O1700   2.371   1_556  S
Zr1696     O1699   2.375   1_556  S
Zr1696     O2126   2.368       .  S
Zr1696     O2128   2.368       .  S
O1697      H1738   0.990   1_554  S
O1697      H2143   0.990       .  S
O1698     Zr2098   2.435       .  S
O1698      H1731   0.990       .  S
O1699     Zr1719   2.385       .  S
O1700     Zr1720   2.388       .  S
O1700      H1727   0.966       .  S
O1701     Zr1713   2.435       .  S
O1701      C1703   1.286       .  A
O1702     Zr1720   2.429       .  S
O1702      C1703   1.287       .  A
O1704     Zr2118   2.446       .  S
O1704      C1706   1.288       .  A
O1705     Zr1719   2.433       .  S
O1705      C2108   1.288   1_554  A
C1706      O2107   1.288       .  A
O1707     Zr2118   2.444       .  S
O1707      C1709   1.287       .  A
O1708     Zr1720   2.429       .  S
O1708      C2111   1.287   1_554  A
C1709      O2110   1.287       .  A
O1710     Zr1713   2.432       .  S
O1710      C1712   1.286       .  A
O1711     Zr1719   2.434       .  S
O1711      C1712   1.288       .  A
Zr1713     O1714   2.434       .  S
Zr1713     O1715   2.435       .  S
Zr1713     O1721   2.369       .  S
Zr1713     O1722   2.372       .  S
Zr1713     O1725   2.369       .  S
Zr1713     O1723   2.367       .  S
O1714      H1734   0.990       .  S
O1714      H1739   0.990       .  S
O1715      H1735   0.990       .  S
Zr1716     O2106   2.447       .  S
Zr1716     O2109   2.446       .  S
Zr1716     O1717   2.434       .  S
Zr1716     O2120   2.434       .  S
Zr1716     O1722   2.379   1_556  S
Zr1716     O1721   2.377   1_556  S
Zr1716     O2128   2.367       .  S
Zr1716     O2126   2.364       .  S
O1717      H1733   0.990   1_556  S
O1718     Zr2118   2.435       .  S
O1718      H1732   0.990       .  S
O1718      H1742   0.990       .  S
Zr1719     O1722   2.382       .  S
Zr1719     O2126   2.387   1_554  S
Zr1719     O1725   2.385       .  S
Zr1720     O1721   2.383       .  S
Zr1720     O1723   2.380       .  S
Zr1720     O2128   2.381   1_554  S
O1721      H1729   0.966       .  S
O1724     Zr2098   2.367       .  S
O1724     Zr2118   2.367       .  S
O1724     Zr2121   2.385       .  S
O1724      H1728   0.966       .  S
O1725      H1730   0.966       .  S
O1726     Zr2098   2.369       .  S
O1726     Zr2118   2.371       .  S
O1726     Zr2122   2.382       .  S
H1741      O2099   0.990       .  S
O1743      C1745   1.287       .  A
O1744     Zr1781   2.435       .  S
O1744      C2147   1.288   1_554  A
C1745      O2146   1.288       .  A
O1746     Zr1758   2.443       .  S
O1746      C1748   1.288       .  A
O1747     Zr1782   2.421       .  S
O1747      C1748   1.285       .  A
O1749      C1751   1.288       .  A
O1750     Zr1781   2.433       .  S
O1750      C1751   1.288       .  A
O1752     Zr2157   2.437       .  S
O1752      C1754   1.286       .  A
O1753     Zr1782   2.428       .  S
O1753      C2156   1.287   1_554  A
C1754      O2155   1.287       .  A
Zr1755     O2154   2.443       .  S
Zr1755     O1756   2.435   1_556  S
Zr1755     O2159   2.435       .  S
Zr1755     O1762   2.373   1_556  S
Zr1755     O2187   2.370       .  S
O1757     Zr2157   2.436       .  S
O1757      H1802   0.990       .  S
Zr1758     O1759   2.434       .  S
Zr1758     O1760   2.435       .  S
Zr1758     O1762   2.375       .  S
Zr1758     O1788   2.370       .  S
O1759      H1800   0.990       .  S
O1759      H1803   0.990   1_655  S
O1761     Zr1781   2.385       .  S
O1762     Zr1782   2.386       .  S
O1762      H1789   0.965       .  S
O1763     Zr2177   2.445       .  S
O1763      C1765   1.288       .  A
O1764     Zr1782   2.426       .  S
O1764      C2167   1.286   1_554  A
C1765      O2166   1.286       .  A
O1766      C1768   1.288       .  A
O1767     Zr1781   2.432       .  S
O1767      C1768   1.288       .  A
O1769     Zr1778   2.450       .  S
O1769      C1771   1.289       .  A
O1770     Zr1782   2.425       .  S
O1770      C1771   1.286       .  A
O1772      C1774   1.288       .  A
O1773     Zr1781   2.437       .  S
O1773      C2176   1.288   1_554  A
C1774      O2175   1.288       .  A
Zr1775     O2165   2.445       .  S
Zr1775     O1776   2.434   1_556  S
Zr1775     O2179   2.434       .  S
Zr1775     O1783   2.371   1_556  S
Zr1775     O2187   2.370       .  S
O1776      H1796   0.990   1_554  S
O1776      H2203   0.990   1_655  S
O1777     Zr2177   2.434       .  S
O1777      H1797   0.990       .  S
Zr1778     O1779   2.435       .  S
Zr1778     O1780   2.434       .  S
Zr1778     O1783   2.374       .  S
Zr1778     O1788   2.369       .  S
O1780      H1794   0.990       .  S
O1780      H1804   0.990       .  S
Zr1781     O1784   2.385       .  S
Zr1781     O1786   2.387       .  S
Zr1781     O2189   2.387   1_554  S
Zr1782     O1783   2.384       .  S
Zr1782     O2187   2.379   1_554  S
Zr1782     O1788   2.383       .  S
O1783      H1791   0.966       .  S
O1785     Zr2157   2.371       .  S
O1785     Zr2177   2.366       .  S
O1785     Zr2184   2.376       .  S
O1786      H1790   0.965       .  S
O1787     Zr2183   2.388       .  S
O1787      H1792   0.964       .  S
H1801      O2178   0.990   1_455  S
O1805     Zr2219   2.440       .  S
O1805      C1807   1.287       .  A
O1806     Zr1843   2.436       .  S
O1806      C2209   1.289   1_554  A
C1807      O2208   1.286       .  A
O1808     Zr2624   2.448   1_545  S
O1808      C1810   1.289       .  A
O1809     Zr1844   2.422       .  S
O1809      C1810   1.286       .  A
O1811     Zr1820   2.442       .  S
O1811      C1813   1.288       .  A
O1812     Zr1843   2.432       .  S
O1812      C1813   1.287       .  A
O1814     Zr3023   2.438   1_545  S
O1814      C1816   1.287       .  A
O1815     Zr1844   2.427       .  S
O1815      C2218   1.286   1_554  A
C1816      O2217   1.285       .  A
Zr1817     O2207   2.436       .  S
Zr1817     O3020   2.435       .  S
Zr1817     O1818   2.435       .  S
Zr1817     O3025   2.437       .  S
Zr1817     O1823   2.377   1_556  S
Zr1817     O2628   2.372   1_556  S
Zr1817     O3053   2.369       .  S
Zr1817     O2251   2.369       .  S
O1818      H1861   0.990   1_556  S
O1819     Zr3023   2.437       .  S
O1819      H2664   0.990       .  S
O1819      H2668   0.990       .  S
Zr1820     O2612   2.440       .  S
Zr1820     O1821   2.435       .  S
Zr1820     O2626   2.433       .  S
Zr1820     O2628   2.374       .  S
Zr1820     O1823   2.375       .  S
Zr1820     O1848   2.368       .  S
Zr1820     O2654   2.370       .  S
O1821      H2666   0.990       .  S
O1821      H1865   0.990       .  S
O1822     Zr2624   2.434       .  S
O1822      H2659   0.990       .  S
O1823     Zr1843   2.385       .  S
O1824     Zr2621   2.374   1_544  S
O1824     Zr2624   2.375   1_545  S
O1824     Zr1844   2.387       .  S
O1824      H1851   0.967       .  S
O1825     Zr3043   2.440   1_545  S
O1825      C1827   1.287       .  A
O1826     Zr1844   2.430       .  S
O1826      C2229   1.287   1_554  A
C1827      O2228   1.285       .  A
O1828     Zr1840   2.436       .  S
O1828      C1830   1.286       .  A
O1829     Zr1843   2.436       .  S
O1829      C1830   1.288       .  A
O1831     Zr2644   2.442   1_545  S
O1831      C1833   1.287       .  A
O1832     Zr1844   2.425       .  S
O1832      C1833   1.286       .  A
O1834     Zr2239   2.437       .  S
O1834      C1836   1.286       .  A
O1835     Zr1843   2.429       .  S
O1835      C2238   1.287   1_554  A
C1836      O2237   1.286       .  A
Zr1837     O3031   2.442       .  S
Zr1837     O2236   2.446       .  S
Zr1837     O1838   2.434   1_556  S
Zr1837     O2241   2.433       .  S
Zr1837     O2649   2.373   1_556  S
Zr1837     O1846   2.373   1_556  S
Zr1837     O2251   2.370       .  S
Zr1837     O3053   2.370       .  S
O1838      H2662   0.990   1_554  S
O1838      H2265   0.990       .  S
O1839     Zr2239   2.433       .  S
O1839      H2663   0.990       .  S
Zr1840     O2635   2.443       .  S
Zr1840     O1841   2.438       .  S
Zr1840     O1842   2.436       .  S
Zr1840     O1846   2.377       .  S
Zr1840     O2649   2.373       .  S
Zr1840     O2654   2.367       .  S
Zr1840     O1848   2.369       .  S
O1841      H1857   0.990       .  S
O1842      H2660   0.990       .  S
O1842      H1866   0.990       .  S
Zr1843     O1846   2.385       .  S
Zr1843     O1848   2.388       .  S
Zr1843     O2251   2.387   1_554  S
Zr1844     O1845   2.385       .  S
Zr1844     O2249   2.380   1_554  S
Zr1844     O1850   2.385       .  S
O1845     Zr2641   2.372   1_544  S
O1845     Zr2644   2.375   1_545  S
O1845      H1853   0.967       .  S
O1847     Zr3023   2.369   1_545  S
O1847     Zr3043   2.370   1_545  S
O1847     Zr2246   2.383       .  S
O1848      H1852   0.966       .  S
O1849     Zr2219   2.367       .  S
O1849     Zr2239   2.365       .  S
O1849     Zr2245   2.386       .  S
O1849      H1854   0.967       .  S
O1850     Zr2624   2.371   1_545  S
O1850     Zr2644   2.371   1_545  S
H1855      O2626   0.990       .  S
H1856      O2646   0.990   1_545  S
H1858      O2642   0.990   1_546  S
H1859      O2643   0.990       .  S
H1860      O2623   0.990       .  S
H1862      O2625   0.990       .  S
H1863      O2240   0.990       .  S
H1864      O2623   0.990       .  S
C1867      C1868   1.407       .  A
C1867      C1872   1.406       .  A
C1868      C1869   1.398       .  A
C1868      H1881   1.083       .  S
C1869      C1870   1.403       .  A
C1869      H1882   1.083       .  S
C1870      C1871   1.410       .  A
C1870      C1873   1.493       .  S
C1871      C1872   1.401       .  A
C1871      H1883   1.081       .  S
C1872      H1884   1.083       .  S
C1873      C1874   1.349       .  D
C1873      H1885   1.085       .  S
C1874      C1875   1.491       .  S
C1874      H1886   1.084       .  S
C1875      C1876   1.403       .  A
C1875      C1880   1.410       .  A
C1876      C1877   1.398       .  A
C1876      H1887   1.083       .  S
C1877      C1878   1.406       .  A
C1877      H1888   1.083       .  S
C1878      C1879   1.408       .  A
C1879      C1880   1.403       .  A
C1879      H1889   1.083       .  S
C1880      H1890   1.081       .  S
C1891      C1892   1.406       .  A
C1891      C1896   1.405       .  A
C1892      C1893   1.396       .  A
C1892      H1905   1.083       .  S
C1893      C1894   1.403       .  A
C1893      H1906   1.083       .  S
C1894      C1895   1.411       .  A
C1894      C1897   1.491       .  S
C1895      C1896   1.400       .  A
C1895      H1907   1.080       .  S
C1896      H1908   1.083       .  S
C1897      C1898   1.348       .  D
C1897      H1909   1.085       .  S
C1898      C1899   1.488       .  S
C1898      H1910   1.083       .  S
C1899      C1900   1.402       .  A
C1899      C1904   1.409       .  A
C1900      C1901   1.397       .  A
C1900      H1911   1.084       .  S
C1901      C1902   1.407       .  A
C1901      H1912   1.083       .  S
C1902      C1903   1.406       .  A
C1903      C1904   1.401       .  A
C1903      H1913   1.083       .  S
C1904      H1914   1.081       .  S
C1915      C1916   1.408       .  A
C1915      C1920   1.405       .  A
C1916      C1917   1.396       .  A
C1916      H1929   1.083       .  S
C1917      C1918   1.402       .  A
C1917      H1930   1.084       .  S
C1918      C1919   1.409       .  A
C1918      C1921   1.488       .  S
C1919      C1920   1.399       .  A
C1919      H1931   1.081       .  S
C1920      H1932   1.083       .  S
C1921      C1922   1.347       .  D
C1921      H1933   1.084       .  S
C1922      C1923   1.487       .  S
C1922      H1934   1.084       .  S
C1923      C1924   1.402       .  A
C1923      C1928   1.409       .  A
C1924      C1925   1.396       .  A
C1924      H1935   1.084       .  S
C1925      C1926   1.406       .  A
C1925      H1936   1.083       .  S
C1926      C1927   1.407       .  A
C1927      C1928   1.400       .  A
C1927      H1937   1.083       .  S
C1928      H1938   1.081       .  S
C1939      C1940   1.407       .  A
C1939      C1944   1.407       .  A
C1940      C1941   1.399       .  A
C1940      H1953   1.083       .  S
C1941      C1942   1.403       .  A
C1941      H1954   1.083       .  S
C1942      C1943   1.410       .  A
C1942      C1945   1.494       .  S
C1943      C1944   1.403       .  A
C1943      H1955   1.081       .  S
C1944      H1956   1.083       .  S
C1945      C1946   1.349       .  D
C1945      H1957   1.085       .  S
C1946      C1947   1.492       .  S
C1946      H1958   1.084       .  S
C1947      C1948   1.403       .  A
C1947      C1952   1.409       .  A
C1948      C1949   1.399       .  A
C1948      H1959   1.084       .  S
C1949      C1950   1.408       .  A
C1949      H1960   1.083       .  S
C1950      C1951   1.407       .  A
C1951      C1952   1.404       .  A
C1951      H1961   1.083       .  S
C1952      H1962   1.081       .  S
C1963      C1964   1.408       .  A
C1963      C1968   1.408       .  A
C1964      C1965   1.399       .  A
C1964      H1977   1.083       .  S
C1965      C1966   1.403       .  A
C1965      H1978   1.083       .  S
C1966      C1967   1.410       .  A
C1966      C1969   1.494       .  S
C1967      C1968   1.404       .  A
C1967      H1979   1.081       .  S
C1968      H1980   1.083       .  S
C1969      C1970   1.350       .  D
C1969      H1981   1.084       .  S
C1970      C1971   1.496       .  S
C1970      H1982   1.085       .  S
C1971      C1972   1.404       .  A
C1971      C1976   1.411       .  A
C1972      C1973   1.399       .  A
C1972      H1983   1.083       .  S
C1973      C1974   1.406       .  A
C1973      H1984   1.083       .  S
C1974      C1975   1.408       .  A
C1975      C1976   1.404       .  A
C1975      H1985   1.083       .  S
C1976      H1986   1.081       .  S
C1987      C1988   1.408       .  A
C1987      C1992   1.408       .  A
C1988      C1989   1.399       .  A
C1988      H2001   1.083       .  S
C1989      C1990   1.403       .  A
C1989      H2002   1.083       .  S
C1990      C1991   1.411       .  A
C1990      C1993   1.496       .  S
C1991      C1992   1.405       .  A
C1991      H2003   1.081       .  S
C1992      H2004   1.083       .  S
C1993      C1994   1.350       .  D
C1993      H2005   1.084       .  S
C1994      C1995   1.497       .  S
C1994      H2006   1.084       .  S
C1995      C1996   1.404       .  A
C1995      C2000   1.411       .  A
C1996      C1997   1.399       .  A
C1996      H2007   1.083       .  S
C1997      C1998   1.406       .  A
C1997      H2008   1.083       .  S
C1998      C1999   1.408       .  A
C1999      C2000   1.403       .  A
C1999      H2009   1.083       .  S
C2000      H2010   1.080       .  S
C2011      N2012   1.362       .  A
C2011      N2016   1.359       .  A
C2011      C2389   1.489       .  S
N2012      C2013   1.362       .  A
C2013      N2014   1.358       .  A
C2013      C2085   1.469       .  S
N2014      C2015   1.357       .  A
C2015      N2016   1.357       .  A
C2015      C2215   1.465       .  S
C2017      N2018   1.362       .  A
C2017      N2022   1.359       .  A
C2017      C2400   1.489       .  S
N2018      C2019   1.362       .  A
C2019      N2020   1.357       .  A
C2019      C2209   1.467       .  S
N2020      C2021   1.356       .  A
C2021      N2022   1.357       .  A
C2021      C2091   1.463       .  S
C2023      N2024   1.360       .  A
C2023      N2028   1.362       .  A
C2023      C2376   1.492       .  S
N2024      C2025   1.359       .  A
C2025      N2026   1.358       .  A
C2025      C2147   1.469       .  S
N2026      C2027   1.359       .  A
C2027      N2028   1.362       .  A
C2027      C2238   1.469       .  S
C2029      N2030   1.363       .  A
C2029      N2034   1.359       .  A
C2029      C2365   1.492       .  S
N2030      C2031   1.363       .  A
C2031      N2032   1.358       .  A
C2031      C2153   1.470       .  S
N2032      C2033   1.357       .  A
C2033      N2034   1.358       .  A
C2033      C2232   1.465       .  S
C2035      N2036   1.361       .  A
C2035      N2040   1.360       .  A
C2035      C2352   1.490       .  S
N2036      C2037   1.361       .  A
C2037      N2038   1.357       .  A
C2037      C2170   1.465       .  S
N2038      C2039   1.356       .  A
C2039      N2040   1.358       .  A
C2039      C2114   1.464       .  S
C2041      N2042   1.360       .  A
C2041      N2046   1.364       .  A
C2041      C2341   1.493       .  S
N2042      C2043   1.357       .  A
C2043      N2044   1.357       .  A
C2043      C2176   1.469       .  S
N2044      C2045   1.359       .  A
C2045      N2046   1.364       .  A
C2045      C2108   1.471       .  S
C2047      N2048   1.361       .  A
C2047      N2052   1.360       .  A
C2047      C2317   1.488       .  S
N2048      C2049   1.360       .  A
C2049      N2050   1.359       .  A
C2049      C2167   1.468       .  S
N2050      C2051   1.358       .  A
C2051      N2052   1.358       .  A
C2051      C2218   1.468       .  S
C2053      N2054   1.360       .  A
C2053      N2058   1.361       .  A
C2053      C2328   1.487       .  S
N2054      C2055   1.358       .  A
C2055      N2056   1.358       .  A
C2055      C2173   1.468       .  S
N2056      C2057   1.359       .  A
C2057      N2058   1.360       .  A
C2057      C2212   1.469       .  S
C2059      N2060   1.362       .  A
C2059      N2064   1.357       .  A
C2059      C2293   1.484       .  S
N2060      C2061   1.362       .  A
C2061      N2062   1.359       .  A
C2061      C2094   1.469       .  S
N2062      C2063   1.357       .  A
C2063      N2064   1.354       .  A
C2063      C2150   1.464       .  S
C2065      N2066   1.362       .  A
C2065      N2070   1.358       .  A
C2065      C2304   1.486       .  S
N2066      C2067   1.362       .  A
C2067      N2068   1.359       .  A
C2067      C2156   1.469       .  S
N2068      C2069   1.356       .  A
C2069      N2070   1.355       .  A
C2069      C2088   1.465       .  S
C2071      N2072   1.361       .  A
C2071      N2076   1.359       .  A
C2071      C2269   1.485       .  S
N2072      C2073   1.361       .  A
C2073      N2074   1.359       .  A
C2073      C2111   1.469       .  S
N2074      C2075   1.357       .  A
C2075      N2076   1.356       .  A
C2075      C2229   1.467       .  S
C2077      N2078   1.360       .  A
C2077      N2082   1.358       .  A
C2077      C2280   1.481       .  S
N2078      C2079   1.359       .  A
C2079      N2080   1.358       .  A
C2079      C2235   1.464       .  S
N2080      C2081   1.356       .  A
C2081      N2082   1.355       .  A
C2081      C2105   1.462       .  S
O2083     Zr2095   2.446       .  S
O2083      C2085   1.288       .  A
O2084     Zr2121   2.432       .  S
O2084      C2085   1.288       .  A
O2086      C2088   1.287       .  A
O2087     Zr2122   2.427       .  S
O2089      C2091   1.287       .  A
O2090     Zr2121   2.435       .  S
O2092     Zr2095   2.447       .  S
O2092      C2094   1.288       .  A
O2093     Zr2122   2.425       .  S
O2093      C2094   1.287       .  A
Zr2095     O2096   2.434       .  S
Zr2095     O2097   2.436       .  S
Zr2095     O2101   2.378       .  S
Zr2095     O2102   2.373       .  S
Zr2095     O2125   2.367       .  S
Zr2095     O2127   2.368       .  S
O2096      H2139   0.990       .  S
O2097      H2138   0.990       .  S
O2097      H2142   0.990       .  S
Zr2098     O2099   2.435       .  S
Zr2098     O2102   2.370       .  S
Zr2098     O2101   2.373       .  S
O2099      H2140   0.990       .  S
O2100      H2133   0.990       .  S
O2101     Zr2121   2.382       .  S
O2102     Zr2122   2.382       .  S
O2102      H2129   0.966       .  S
O2103     Zr2115   2.439       .  S
O2103      C2105   1.287       .  A
O2104     Zr2122   2.418       .  S
O2104      C2105   1.285       .  A
O2106      C2108   1.288       .  A
O2107     Zr2121   2.434       .  S
O2109      C2111   1.288       .  A
O2110     Zr2122   2.428       .  S
O2112     Zr2115   2.439       .  S
O2112      C2114   1.287       .  A
O2113     Zr2121   2.426       .  S
O2113      C2114   1.286       .  A
Zr2115     O2116   2.436       .  S
Zr2115     O2117   2.434       .  S
Zr2115     O2123   2.372       .  S
Zr2115     O2124   2.374       .  S
Zr2115     O2127   2.369       .  S
Zr2115     O2125   2.369       .  S
O2116      H2136   0.990       .  S
O2116      H2141   0.990       .  S
O2117      H2137   0.990       .  S
Zr2118     O2119   2.434       .  S
Zr2118     O2124   2.377       .  S
Zr2118     O2123   2.375       .  S
O2119      H2135   0.990       .  S
O2120      H2134   0.990       .  S
O2120      H2144   0.990       .  S
Zr2121     O2124   2.386       .  S
Zr2121     O2127   2.389       .  S
Zr2122     O2123   2.388       .  S
Zr2122     O2125   2.383       .  S
O2123      H2131   0.967       .  S
O2126      H2130   0.966       .  S
O2127      H2132   0.966       .  S
O2145      C2147   1.287       .  A
O2146     Zr2183   2.433       .  S
O2148     Zr2160   2.447       .  S
O2148      C2150   1.289       .  A
O2149     Zr2184   2.416       .  S
O2149      C2150   1.284       .  A
O2151      C2153   1.288       .  A
O2152     Zr2183   2.436       .  S
O2152      C2153   1.289       .  A
O2154      C2156   1.288       .  A
O2155     Zr2184   2.431       .  S
Zr2157     O2158   2.436       .  S
Zr2157     O2164   2.373       .  S
O2159      H2204   0.990       .  S
Zr2160     O2161   2.434       .  S
Zr2160     O2162   2.435       .  S
Zr2160     O2164   2.372       .  S
Zr2160     O2190   2.368       .  S
O2161      H2202   0.990       .  S
O2161      H2205   0.990   1_655  S
O2163     Zr2183   2.384       .  S
O2164     Zr2184   2.387       .  S
O2164      H2191   0.965       .  S
O2165      C2167   1.288       .  A
O2166     Zr2184   2.426       .  S
O2168      C2170   1.287       .  A
O2169     Zr2183   2.430       .  S
O2169      C2170   1.288       .  A
O2171     Zr2180   2.442       .  S
O2171      C2173   1.288       .  A
O2172     Zr2184   2.429       .  S
O2172      C2173   1.287       .  A
O2174      C2176   1.288       .  A
O2175     Zr2183   2.434       .  S
Zr2177     O2178   2.433       .  S
Zr2177     O2185   2.372       .  S
O2178      H2198   0.990       .  S
O2179      H2199   0.990       .  S
Zr2180     O2181   2.433       .  S
Zr2180     O2182   2.437       .  S
Zr2180     O2185   2.379       .  S
Zr2180     O2190   2.369       .  S
O2182      H2196   0.990       .  S
O2182      H2206   0.990       .  S
Zr2183     O2186   2.385       .  S
Zr2183     O2188   2.384       .  S
Zr2184     O2185   2.385       .  S
Zr2184     O2190   2.387       .  S
O2185      H2193   0.965       .  S
O2188      H2192   0.965       .  S
O2189      H2194   0.964       .  S
O2207      C2209   1.286       .  A
O2208     Zr2245   2.422       .  S
O2210     Zr3026   2.448   1_545  S
O2210      C2212   1.288       .  A
O2211     Zr2246   2.424       .  S
O2211      C2212   1.286       .  A
O2213     Zr2222   2.439       .  S
O2213      C2215   1.287       .  A
O2214     Zr2245   2.430       .  S
O2214      C2215   1.287       .  A
O2216     Zr2621   2.444   1_545  S
O2216      C2218   1.288       .  A
O2217     Zr2246   2.421       .  S
Zr2219     O2618   2.440       .  S
Zr2219     O2220   2.436       .  S
Zr2219     O2623   2.437       .  S
Zr2219     O2225   2.377       .  S
Zr2219     O3030   2.369       .  S
Zr2219     O2651   2.370       .  S
O2220      H2263   0.990       .  S
O2221     Zr2621   2.436       .  S
O2221      H3066   0.990       .  S
O2221      H3070   0.990       .  S
Zr2222     O3014   2.437       .  S
Zr2222     O2223   2.435       .  S
Zr2222     O3028   2.433       .  S
Zr2222     O3030   2.370       .  S
Zr2222     O2225   2.373       .  S
Zr2222     O2250   2.368       .  S
Zr2222     O3056   2.371       .  S
O2223      H3068   0.990       .  S
O2223      H2267   0.990       .  S
O2224     Zr3026   2.433       .  S
O2224      H3061   0.990       .  S
O2225     Zr2245   2.384       .  S
O2226     Zr3023   2.375   1_545  S
O2226     Zr3026   2.369   1_545  S
O2226     Zr2246   2.384       .  S
O2226      H2253   0.967       .  S
O2227     Zr2641   2.438   1_545  S
O2227      C2229   1.287       .  A
O2228     Zr2246   2.421       .  S
O2230     Zr2242   2.439       .  S
O2230      C2232   1.287       .  A
O2231     Zr2245   2.428       .  S
O2231      C2232   1.287       .  A
O2233     Zr3046   2.443   1_545  S
O2233      C2235   1.287       .  A
O2234     Zr2246   2.419       .  S
O2234      C2235   1.285       .  A
O2236      C2238   1.288       .  A
O2237     Zr2245   2.427       .  S
Zr2239     O2629   2.436       .  S
Zr2239     O2240   2.434       .  S
Zr2239     O3051   2.373       .  S
Zr2239     O2248   2.373       .  S
Zr2239     O2651   2.369       .  S
O2240      H3064   0.990       .  S
O2241      H3065   0.990       .  S
Zr2242     O3037   2.449       .  S
Zr2242     O2243   2.434       .  S
Zr2242     O2244   2.437       .  S
Zr2242     O2248   2.377       .  S
Zr2242     O3051   2.372       .  S
Zr2242     O3056   2.368       .  S
Zr2242     O2250   2.366       .  S
O2243      H2259   0.989       .  S
O2244      H3062   0.990       .  S
O2244      H2268   0.990       .  S
Zr2245     O2248   2.381       .  S
Zr2245     O2250   2.385       .  S
Zr2246     O2247   2.386       .  S
Zr2246     O2252   2.382       .  S
O2247     Zr3043   2.371   1_545  S
O2247     Zr3046   2.374   1_545  S
O2247      H2255   0.967       .  S
O2249     Zr2621   2.369   1_545  S
O2249     Zr2641   2.368   1_545  S
O2250      H2254   0.966       .  S
O2251      H2256   0.967       .  S
O2252     Zr3026   2.372   1_545  S
O2252     Zr3046   2.372   1_545  S
H2257      O3028   0.990       .  S
H2258      O3048   0.990   1_545  S
H2260      O3044   0.990   1_545  S
H2261      O3045   0.990       .  S
H2262      O3025   0.990       .  S
H2264      O3027   0.990   1_545  S
H2266      O3025   0.990       .  S
C2269      C2270   1.407       .  A
C2269      C2274   1.406       .  A
C2270      C2271   1.396       .  A
C2270      H2283   1.083       .  S
C2271      C2272   1.402       .  A
C2271      H2284   1.084       .  S
C2272      C2273   1.410       .  A
C2272      C2275   1.487       .  S
C2273      C2274   1.400       .  A
C2273      H2285   1.081       .  S
C2274      H2286   1.083       .  S
C2275      C2276   1.346       .  D
C2275      H2287   1.084       .  S
C2276      C2277   1.485       .  S
C2276      H2288   1.084       .  S
C2277      C2278   1.402       .  A
C2277      C2282   1.409       .  A
C2278      C2279   1.395       .  A
C2278      H2289   1.084       .  S
C2279      C2280   1.406       .  A
C2279      H2290   1.083       .  S
C2280      C2281   1.406       .  A
C2281      C2282   1.399       .  A
C2281      H2291   1.083       .  S
C2282      H2292   1.081       .  S
C2293      C2294   1.407       .  A
C2293      C2298   1.405       .  A
C2294      C2295   1.396       .  A
C2294      H2307   1.083       .  S
C2295      C2296   1.402       .  A
C2295      H2308   1.083       .  S
C2296      C2297   1.410       .  A
C2296      C2299   1.489       .  S
C2297      C2298   1.400       .  A
C2297      H2309   1.081       .  S
C2298      H2310   1.083       .  S
C2299      C2300   1.347       .  D
C2299      H2311   1.084       .  S
C2300      C2301   1.489       .  S
C2300      H2312   1.084       .  S
C2301      C2302   1.402       .  A
C2301      C2306   1.410       .  A
C2302      C2303   1.395       .  A
C2302      H2313   1.084       .  S
C2303      C2304   1.407       .  A
C2303      H2314   1.083       .  S
C2304      C2305   1.406       .  A
C2305      C2306   1.402       .  A
C2305      H2315   1.083       .  S
C2306      H2316   1.080       .  S
C2317      C2318   1.407       .  A
C2317      C2322   1.407       .  A
C2318      C2319   1.398       .  A
C2318      H2331   1.083       .  S
C2319      C2320   1.403       .  A
C2319      H2332   1.083       .  S
C2320      C2321   1.410       .  A
C2320      C2323   1.492       .  S
C2321      C2322   1.401       .  A
C2321      H2333   1.081       .  S
C2322      H2334   1.083       .  S
C2323      C2324   1.348       .  D
C2323      H2335   1.085       .  S
C2324      C2325   1.489       .  S
C2324      H2336   1.084       .  S
C2325      C2326   1.403       .  A
C2325      C2330   1.409       .  A
C2326      C2327   1.396       .  A
C2326      H2337   1.083       .  S
C2327      C2328   1.406       .  A
C2327      H2338   1.083       .  S
C2328      C2329   1.408       .  A
C2329      C2330   1.402       .  A
C2329      H2339   1.083       .  S
C2330      H2340   1.081       .  S
C2341      C2342   1.408       .  A
C2341      C2346   1.407       .  A
C2342      C2343   1.399       .  A
C2342      H2355   1.083       .  S
C2343      C2344   1.403       .  A
C2343      H2356   1.083       .  S
C2344      C2345   1.411       .  A
C2344      C2347   1.495       .  S
C2345      C2346   1.404       .  A
C2345      H2357   1.081       .  S
C2346      H2358   1.083       .  S
C2347      C2348   1.350       .  D
C2347      H2359   1.084       .  S
C2348      C2349   1.496       .  S
C2348      H2360   1.085       .  S
C2349      C2350   1.404       .  A
C2349      C2354   1.411       .  A
C2350      C2351   1.398       .  A
C2350      H2361   1.083       .  S
C2351      C2352   1.406       .  A
C2351      H2362   1.083       .  S
C2352      C2353   1.408       .  A
C2353      C2354   1.404       .  A
C2353      H2363   1.083       .  S
C2354      H2364   1.080       .  S
C2365      C2366   1.408       .  A
C2365      C2370   1.407       .  A
C2366      C2367   1.399       .  A
C2366      H2379   1.083       .  S
C2367      C2368   1.404       .  A
C2367      H2380   1.083       .  S
C2368      C2369   1.411       .  A
C2368      C2371   1.497       .  S
C2369      C2370   1.404       .  A
C2369      H2381   1.080       .  S
C2370      H2382   1.083       .  S
C2371      C2372   1.351       .  D
C2371      H2383   1.084       .  S
C2372      C2373   1.497       .  S
C2372      H2384   1.084       .  S
C2373      C2374   1.404       .  A
C2373      C2378   1.410       .  A
C2374      C2375   1.400       .  A
C2374      H2385   1.083       .  S
C2375      C2376   1.407       .  A
C2375      H2386   1.083       .  S
C2376      C2377   1.408       .  A
C2377      C2378   1.404       .  A
C2377      H2387   1.083       .  S
C2378      H2388   1.081       .  S
C2389      C2390   1.408       .  A
C2389      C2394   1.407       .  A
C2390      C2391   1.397       .  A
C2390      H2403   1.083       .  S
C2391      C2392   1.402       .  A
C2391      H2404   1.084       .  S
C2392      C2393   1.409       .  A
C2392      C2395   1.490       .  S
C2393      C2394   1.403       .  A
C2393      H2405   1.081       .  S
C2394      H2406   1.083       .  S
C2395      C2396   1.348       .  D
C2395      H2407   1.085       .  S
C2396      C2397   1.491       .  S
C2396      H2408   1.085       .  S
C2397      C2398   1.402       .  A
C2397      C2402   1.409       .  A
C2398      C2399   1.398       .  A
C2398      H2409   1.083       .  S
C2399      C2400   1.407       .  A
C2399      H2410   1.083       .  S
C2400      C2401   1.407       .  A
C2401      C2402   1.402       .  A
C2401      H2411   1.083       .  S
C2402      H2412   1.081       .  S
C2413      N2414   1.361       .  A
C2413      N2418   1.360       .  A
C2413      C2791   1.488       .  S
N2414      C2415   1.361       .  A
C2415      N2416   1.359       .  A
C2415      C2487   1.467       .  S
N2416      C2417   1.358       .  A
C2417      N2418   1.358       .  A
C2417      C2617   1.467       .  S
C2419      N2420   1.361       .  A
C2419      N2424   1.359       .  A
C2419      C2802   1.488       .  S
N2420      C2421   1.361       .  A
C2421      N2422   1.357       .  A
C2421      C2611   1.463       .  S
N2422      C2423   1.355       .  A
C2423      N2424   1.358       .  A
C2423      C2493   1.463       .  S
C2425      N2426   1.358       .  A
C2425      N2430   1.360       .  A
C2425      C2778   1.485       .  S
N2426      C2427   1.355       .  A
C2427      N2428   1.356       .  A
C2427      C2549   1.462       .  S
N2428      C2429   1.358       .  A
C2429      N2430   1.360       .  A
C2429      C2640   1.463       .  S
C2431      N2432   1.361       .  A
C2431      N2436   1.360       .  A
C2431      C2767   1.487       .  S
N2432      C2433   1.360       .  A
C2433      N2434   1.357       .  A
C2433      C2555   1.467       .  S
N2434      C2435   1.357       .  A
C2435      N2436   1.358       .  A
C2435      C2634   1.466       .  S
C2437      N2438   1.364       .  A
C2437      N2442   1.357       .  A
C2437      C2754   1.490       .  S
N2438      C2439   1.365       .  A
C2439      N2440   1.359       .  A
C2439      C2572   1.472       .  S
N2440      C2441   1.357       .  A
C2441      N2442   1.355       .  A
C2441      C2516   1.463       .  S
C2443      N2444   1.359       .  A
C2443      N2448   1.363       .  A
C2443      C2743   1.491       .  S
N2444      C2445   1.357       .  A
C2445      N2446   1.358       .  A
C2445      C2578   1.466       .  S
N2446      C2447   1.359       .  A
C2447      N2448   1.363       .  A
C2447      C2510   1.472       .  S
C2449      N2450   1.362       .  A
C2449      N2454   1.358       .  A
C2449      C2719   1.486       .  S
N2450      C2451   1.361       .  A
C2451      N2452   1.359       .  A
C2451      C2569   1.469       .  S
N2452      C2453   1.358       .  A
C2453      N2454   1.356       .  A
C2453      C2620   1.465       .  S
C2455      N2456   1.359       .  A
C2455      N2460   1.360       .  A
C2455      C2730   1.486       .  S
N2456      C2457   1.357       .  A
C2457      N2458   1.354       .  A
C2457      C2575   1.460       .  S
N2458      C2459   1.356       .  A
C2459      N2460   1.360       .  A
C2459      C2614   1.462       .  S
C2461      N2462   1.362       .  A
C2461      N2466   1.358       .  A
C2461      C2695   1.484       .  S
N2462      C2463   1.361       .  A
C2463      N2464   1.360       .  A
C2463      C2496   1.471       .  S
N2464      C2465   1.358       .  A
C2465      N2466   1.355       .  A
C2465      C2552   1.467       .  S
C2467      N2468   1.362       .  A
C2467      N2472   1.358       .  A
C2467      C2706   1.485       .  S
N2468      C2469   1.362       .  A
C2469      N2470   1.359       .  A
C2469      C2558   1.469       .  S
N2470      C2471   1.357       .  A
C2471      N2472   1.354       .  A
C2471      C2490   1.464       .  S
C2473      N2474   1.362       .  A
C2473      N2478   1.358       .  A
C2473      C2671   1.488       .  S
N2474      C2475   1.362       .  A
C2475      N2476   1.358       .  A
C2475      C2513   1.467       .  S
N2476      C2477   1.356       .  A
C2477      N2478   1.356       .  A
C2477      C2631   1.463       .  S
C2479      N2480   1.361       .  A
C2479      N2484   1.359       .  A
C2479      C2682   1.488       .  S
N2480      C2481   1.361       .  A
C2481      N2482   1.357       .  A
C2481      C2637   1.467       .  S
N2482      C2483   1.356       .  A
C2483      N2484   1.357       .  A
C2483      C2507   1.464       .  S
O2485     Zr2497   2.447       .  S
O2485      C2487   1.288       .  A
O2486     Zr2523   2.428       .  S
O2486      C2487   1.287       .  A
O2488     Zr2902   2.446       .  S
O2488      C2490   1.289       .  A
O2489     Zr2524   2.421       .  S
O2489      C2892   1.285   1_554  A
C2490      O2891   1.284       .  A
O2491     Zr2902   2.436       .  S
O2491      C2493   1.286       .  A
O2492     Zr2523   2.425       .  S
O2492      C2895   1.286   1_554  A
C2493      O2894   1.287       .  A
O2494     Zr2497   2.452       .  S
O2494      C2496   1.289       .  A
O2495     Zr2524   2.424       .  S
O2495      C2496   1.286       .  A
Zr2497     O2498   2.435       .  S
Zr2497     O2499   2.436       .  S
Zr2497     O2503   2.379       .  S
Zr2497     O2504   2.376       .  S
Zr2497     O2527   2.367       .  S
Zr2497     O2529   2.371       .  S
O2498      H2541   0.990       .  S
O2499      H2540   0.990       .  S
O2499      H2544   0.990       .  S
Zr2500     O2890   2.441       .  S
Zr2500     O2893   2.439       .  S
Zr2500     O2501   2.434   1_556  S
Zr2500     O2904   2.436       .  S
Zr2500     O2504   2.372   1_556  S
Zr2500     O2503   2.376   1_556  S
Zr2500     O2930   2.370       .  S
Zr2500     O2932   2.366       .  S
O2501      H2542   0.990   1_554  S
O2501      H2947   0.990       .  S
O2502     Zr2902   2.433       .  S
O2502      H2535   0.990       .  S
O2503     Zr2523   2.386       .  S
O2504     Zr2524   2.385       .  S
O2504      H2531   0.966       .  S
O2505     Zr2517   2.439       .  S
O2505      C2507   1.287       .  A
O2506     Zr2524   2.420       .  S
O2506      C2507   1.285       .  A
O2508     Zr2922   2.447       .  S
O2508      C2510   1.288       .  A
O2509     Zr2523   2.434       .  S
O2509      C2912   1.288   1_554  A
C2510      O2911   1.288       .  A
O2511     Zr2922   2.442       .  S
O2511      C2513   1.287       .  A
O2512     Zr2524   2.422       .  S
O2512      C2915   1.286   1_554  A
C2513      O2914   1.287       .  A
O2514     Zr2517   2.436       .  S
O2514      C2516   1.287       .  A
O2515     Zr2523   2.425       .  S
O2515      C2516   1.286       .  A
Zr2517     O2518   2.435       .  S
Zr2517     O2519   2.436       .  S
Zr2517     O2525   2.372       .  S
Zr2517     O2526   2.376       .  S
Zr2517     O2529   2.367       .  S
Zr2517     O2527   2.367       .  S
O2518      H2538   0.990       .  S
O2518      H2543   0.990       .  S
O2519      H2539   0.990       .  S
Zr2520     O2910   2.444       .  S
Zr2520     O2913   2.438       .  S
Zr2520     O2521   2.434   1_556  S
Zr2520     O2924   2.437       .  S
Zr2520     O2526   2.377   1_556  S
Zr2520     O2525   2.376   1_556  S
Zr2520     O2932   2.370       .  S
Zr2520     O2930   2.366       .  S
O2521      H2537   0.990       .  S
O2522     Zr2922   2.434       .  S
O2522      H2536   0.990       .  S
O2522      H2546   0.990       .  S
Zr2523     O2526   2.382       .  S
Zr2523     O2930   2.387   1_554  S
Zr2523     O2529   2.389       .  S
Zr2524     O2525   2.385       .  S
Zr2524     O2527   2.381       .  S
Zr2524     O2932   2.382   1_554  S
O2525      H2533   0.966       .  S
O2528     Zr2902   2.370       .  S
O2528     Zr2922   2.365       .  S
O2528     Zr2925   2.382       .  S
O2528      H2532   0.966       .  S
O2529      H2534   0.966       .  S
O2530     Zr2902   2.367       .  S
O2530     Zr2922   2.371       .  S
O2530     Zr2926   2.379       .  S
H2545      O2903   0.990       .  S
O2547      C2549   1.287       .  A
O2548     Zr2585   2.427       .  S
O2548      C2951   1.287   1_554  A
C2549      O2950   1.285       .  A
O2550     Zr2562   2.448       .  S
O2550      C2552   1.289       .  A
O2551     Zr2586   2.420       .  S
O2551      C2552   1.285       .  A
O2553      C2555   1.288       .  A
O2554     Zr2585   2.430       .  S
O2554      C2555   1.287       .  A
O2556     Zr2961   2.444       .  S
O2556      C2558   1.288       .  A
O2557     Zr2586   2.421       .  S
O2557      C2960   1.285   1_554  A
C2558      O2959   1.287       .  A
Zr2559     O2958   2.447       .  S
Zr2559     O2560   2.435   1_556  S
Zr2559     O2963   2.438       .  S
Zr2559     O2566   2.372   1_556  S
Zr2559     O2991   2.369       .  S
O2561     Zr2961   2.436       .  S
O2561      H2606   0.990       .  S
Zr2562     O2563   2.434       .  S
Zr2562     O2564   2.434       .  S
Zr2562     O2566   2.373       .  S
Zr2562     O2592   2.367       .  S
O2563      H2604   0.990       .  S
O2563      H2607   0.990   1_655  S
O2565     Zr2585   2.388       .  S
O2566     Zr2586   2.384       .  S
O2566      H2593   0.966       .  S
O2567     Zr2981   2.449       .  S
O2567      C2569   1.289       .  A
O2568     Zr2586   2.424       .  S
O2568      C2971   1.286   1_554  A
C2569      O2970   1.286       .  A
O2570      C2572   1.288       .  A
O2571     Zr2585   2.437       .  S
O2571      C2572   1.289       .  A
O2573     Zr2582   2.431       .  S
O2573      C2575   1.285       .  A
O2574     Zr2586   2.422       .  S
O2574      C2575   1.286       .  A
O2576      C2578   1.288       .  A
O2577     Zr2585   2.434       .  S
O2577      C2980   1.288   1_554  A
C2578      O2979   1.286       .  A
Zr2579     O2969   2.442       .  S
Zr2579     O2580   2.436   1_556  S
Zr2579     O2983   2.434       .  S
Zr2579     O2587   2.370   1_556  S
Zr2579     O2991   2.370       .  S
O2580      H2600   0.990   1_554  S
O2580      H3007   0.990   1_655  S
O2581     Zr2981   2.435       .  S
O2581      H2601   0.990       .  S
Zr2582     O2583   2.434       .  S
Zr2582     O2584   2.437       .  S
Zr2582     O2587   2.375       .  S
Zr2582     O2592   2.369       .  S
O2584      H2598   0.990       .  S
O2584      H2608   0.990       .  S
Zr2585     O2588   2.381       .  S
Zr2585     O2590   2.381       .  S
Zr2585     O2993   2.389   1_554  S
Zr2586     O2587   2.385       .  S
Zr2586     O2991   2.379   1_554  S
Zr2586     O2592   2.382       .  S
O2587      H2595   0.967       .  S
O2589     Zr2961   2.367       .  S
O2589     Zr2981   2.369       .  S
O2589     Zr2988   2.379       .  S
O2590      H2594   0.965       .  S
O2591     Zr2987   2.391       .  S
O2591      H2596   0.964       .  S
H2605      O2982   0.990   1_455  S
O2609     Zr3023   2.439       .  S
O2609      C2611   1.286       .  A
O2610     Zr2647   2.428       .  S
O2610      C3013   1.287   1_554  A
C2611      O3012   1.286       .  A
O2612      C2614   1.287       .  A
O2613     Zr2648   2.417       .  S
O2613      C2614   1.285       .  A
O2615     Zr2624   2.445       .  S
O2615      C2617   1.288       .  A
O2616     Zr2647   2.428       .  S
O2616      C2617   1.287       .  A
O2618      C2620   1.287       .  A
O2619     Zr2648   2.426       .  S
O2619      C3022   1.286   1_554  A
C2620      O3021   1.285       .  A
Zr2621     O3011   2.448       .  S
Zr2621     O2622   2.435   1_556  S
Zr2621     O2627   2.374   1_556  S
Zr2621     O3055   2.368       .  S
O2622      H2665   0.990   1_564  S
Zr2624     O2625   2.437       .  S
Zr2624     O2627   2.376       .  S
Zr2624     O2652   2.370       .  S
O2625      H2669   0.990   1_565  S
O2627     Zr2647   2.384       .  S
O2628     Zr2648   2.384       .  S
O2628      H2655   0.967       .  S
O2629      C2631   1.286       .  A
O2630     Zr2648   2.418       .  S
O2630      C3033   1.285   1_554  A
C2631      O3032   1.285       .  A
O2632     Zr2644   2.440       .  S
O2632      C2634   1.287       .  A
O2633     Zr2647   2.430       .  S
O2633      C2634   1.287       .  A
O2635      C2637   1.287       .  A
O2636     Zr2648   2.426       .  S
O2636      C2637   1.286       .  A
O2638     Zr3043   2.441       .  S
O2638      C2640   1.287       .  A
O2639     Zr2647   2.434       .  S
O2639      C3042   1.288   1_554  A
C2640      O3041   1.286       .  A
Zr2641     O3040   2.438       .  S
Zr2641     O2642   2.435   1_556  S
Zr2641     O3045   2.433       .  S
Zr2641     O2650   2.375   1_556  S
Zr2641     O3055   2.369       .  S
O2642      H3069   0.990       .  S
O2643     Zr3043   2.434       .  S
Zr2644     O2645   2.434       .  S
Zr2644     O2646   2.437       .  S
Zr2644     O2650   2.377       .  S
Zr2644     O2652   2.367       .  S
O2645      H2661   0.990       .  S
O2646      H2670   0.990   1_565  S
Zr2647     O2650   2.382       .  S
Zr2647     O2652   2.389       .  S
Zr2647     O3055   2.386   1_554  S
Zr2648     O2649   2.386       .  S
Zr2648     O3053   2.382   1_554  S
Zr2648     O2654   2.380       .  S
O2649      H2657   0.967       .  S
O2651     Zr3050   2.381       .  S
O2652      H2656   0.966       .  S
O2653     Zr3023   2.368       .  S
O2653     Zr3043   2.369       .  S
O2653     Zr3049   2.388       .  S
O2653      H2658   0.967       .  S
H2667      O3044   0.990       .  S
C2671      C2672   1.408       .  A
C2671      C2676   1.406       .  A
C2672      C2673   1.398       .  A
C2672      H2685   1.083       .  S
C2673      C2674   1.403       .  A
C2673      H2686   1.084       .  S
C2674      C2675   1.410       .  A
C2674      C2677   1.492       .  S
C2675      C2676   1.402       .  A
C2675      H2687   1.081       .  S
C2676      H2688   1.083       .  S
C2677      C2678   1.349       .  D
C2677      H2689   1.084       .  S
C2678      C2679   1.493       .  S
C2678      H2690   1.084       .  S
C2679      C2680   1.404       .  A
C2679      C2684   1.410       .  A
C2680      C2681   1.398       .  A
C2680      H2691   1.083       .  S
C2681      C2682   1.407       .  A
C2681      H2692   1.083       .  S
C2682      C2683   1.406       .  A
C2683      C2684   1.401       .  A
C2683      H2693   1.083       .  S
C2684      H2694   1.080       .  S
C2695      C2696   1.407       .  A
C2695      C2700   1.405       .  A
C2696      C2697   1.396       .  A
C2696      H2709   1.083       .  S
C2697      C2698   1.403       .  A
C2697      H2710   1.084       .  S
C2698      C2699   1.410       .  A
C2698      C2701   1.490       .  S
C2699      C2700   1.399       .  A
C2699      H2711   1.080       .  S
C2700      H2712   1.083       .  S
C2701      C2702   1.347       .  D
C2701      H2713   1.084       .  S
C2702      C2703   1.487       .  S
C2702      H2714   1.083       .  S
C2703      C2704   1.402       .  A
C2703      C2708   1.410       .  A
C2704      C2705   1.395       .  A
C2704      H2715   1.084       .  S
C2705      C2706   1.407       .  A
C2705      H2716   1.083       .  S
C2706      C2707   1.406       .  A
C2707      C2708   1.401       .  A
C2707      H2717   1.083       .  S
C2708      H2718   1.081       .  S
C2719      C2720   1.407       .  A
C2719      C2724   1.406       .  A
C2720      C2721   1.397       .  A
C2720      H2733   1.083       .  S
C2721      C2722   1.402       .  A
C2721      H2734   1.083       .  S
C2722      C2723   1.409       .  A
C2722      C2725   1.489       .  S
C2723      C2724   1.401       .  A
C2723      H2735   1.081       .  S
C2724      H2736   1.083       .  S
C2725      C2726   1.348       .  D
C2725      H2737   1.084       .  S
C2726      C2727   1.490       .  S
C2726      H2738   1.085       .  S
C2727      C2728   1.403       .  A
C2727      C2732   1.409       .  A
C2728      C2729   1.397       .  A
C2728      H2739   1.083       .  S
C2729      C2730   1.406       .  A
C2729      H2740   1.083       .  S
C2730      C2731   1.407       .  A
C2731      C2732   1.401       .  A
C2731      H2741   1.083       .  S
C2732      H2742   1.081       .  S
C2743      C2744   1.407       .  A
C2743      C2748   1.407       .  A
C2744      C2745   1.397       .  A
C2744      H2757   1.083       .  S
C2745      C2746   1.403       .  A
C2745      H2758   1.084       .  S
C2746      C2747   1.411       .  A
C2746      C2749   1.495       .  S
C2747      C2748   1.404       .  A
C2747      H2759   1.080       .  S
C2748      H2760   1.083       .  S
C2749      C2750   1.350       .  D
C2749      H2761   1.084       .  S
C2750      C2751   1.494       .  S
C2750      H2762   1.084       .  S
C2751      C2752   1.403       .  A
C2751      C2756   1.411       .  A
C2752      C2753   1.398       .  A
C2752      H2763   1.084       .  S
C2753      C2754   1.409       .  A
C2753      H2764   1.083       .  S
C2754      C2755   1.406       .  A
C2755      C2756   1.403       .  A
C2755      H2765   1.083       .  S
C2756      H2766   1.081       .  S
C2767      C2768   1.406       .  A
C2767      C2772   1.406       .  A
C2768      C2769   1.398       .  A
C2768      H2781   1.083       .  S
C2769      C2770   1.404       .  A
C2769      H2782   1.083       .  S
C2770      C2771   1.411       .  A
C2770      C2773   1.494       .  S
C2771      C2772   1.400       .  A
C2771      H2783   1.079       .  S
C2772      H2784   1.083       .  S
C2773      C2774   1.348       .  D
C2773      H2785   1.084       .  S
C2774      C2775   1.489       .  S
C2774      H2786   1.083       .  S
C2775      C2776   1.402       .  A
C2775      C2780   1.410       .  A
C2776      C2777   1.395       .  A
C2776      H2787   1.083       .  S
C2777      C2778   1.406       .  A
C2777      H2788   1.083       .  S
C2778      C2779   1.407       .  A
C2779      C2780   1.401       .  A
C2779      H2789   1.083       .  S
C2780      H2790   1.081       .  S
C2791      C2792   1.406       .  A
C2791      C2796   1.407       .  A
C2792      C2793   1.398       .  A
C2792      H2805   1.083       .  S
C2793      C2794   1.404       .  A
C2793      H2806   1.083       .  S
C2794      C2795   1.411       .  A
C2794      C2797   1.495       .  S
C2795      C2796   1.402       .  A
C2795      H2807   1.080       .  S
C2796      H2808   1.083       .  S
C2797      C2798   1.350       .  D
C2797      H2809   1.083       .  S
C2798      C2799   1.496       .  S
C2798      H2810   1.083       .  S
C2799      C2800   1.404       .  A
C2799      C2804   1.411       .  A
C2800      C2801   1.398       .  A
C2800      H2811   1.083       .  S
C2801      C2802   1.406       .  A
C2801      H2812   1.083       .  S
C2802      C2803   1.407       .  A
C2803      C2804   1.403       .  A
C2803      H2813   1.083       .  S
C2804      H2814   1.080       .  S
C2815      N2816   1.362       .  A
C2815      N2820   1.360       .  A
C2815      C3193   1.488       .  S
N2816      C2817   1.361       .  A
C2817      N2818   1.358       .  A
C2817      C2889   1.467       .  S
N2818      C2819   1.357       .  A
C2819      N2820   1.358       .  A
C2819      C3019   1.466       .  S
C2821      N2822   1.361       .  A
C2821      N2826   1.358       .  A
C2821      C3204   1.487       .  S
N2822      C2823   1.360       .  A
C2823      N2824   1.359       .  A
C2823      C3013   1.469       .  S
N2824      C2825   1.358       .  A
C2825      N2826   1.357       .  A
C2825      C2895   1.464       .  S
C2827      N2828   1.359       .  A
C2827      N2832   1.362       .  A
C2827      C3180   1.488       .  S
N2828      C2829   1.357       .  A
C2829      N2830   1.356       .  A
C2829      C2951   1.464       .  S
N2830      C2831   1.358       .  A
C2831      N2832   1.362       .  A
C2831      C3042   1.467       .  S
C2833      N2834   1.361       .  A
C2833      N2838   1.360       .  A
C2833      C3169   1.488       .  S
N2834      C2835   1.360       .  A
C2835      N2836   1.359       .  A
C2835      C2957   1.468       .  S
N2836      C2837   1.358       .  A
C2837      N2838   1.358       .  A
C2837      C3036   1.469       .  S
C2839      N2840   1.363       .  A
C2839      N2844   1.357       .  A
C2839      C3156   1.487       .  S
N2840      C2841   1.363       .  A
C2841      N2842   1.358       .  A
C2841      C2974   1.469       .  S
N2842      C2843   1.357       .  A
C2843      N2844   1.356       .  A
C2843      C2918   1.462       .  S
C2845      N2846   1.360       .  A
C2845      N2850   1.363       .  A
C2845      C3145   1.492       .  S
N2846      C2847   1.358       .  A
C2847      N2848   1.356       .  A
C2847      C2980   1.465       .  S
N2848      C2849   1.358       .  A
C2849      N2850   1.363       .  A
C2849      C2912   1.469       .  S
C2851      N2852   1.360       .  A
C2851      N2856   1.359       .  A
C2851      C3121   1.484       .  S
N2852      C2853   1.360       .  A
C2853      N2854   1.358       .  A
C2853      C2971   1.465       .  S
N2854      C2855   1.357       .  A
C2855      N2856   1.357       .  A
C2855      C3022   1.464       .  S
C2857      N2858   1.359       .  A
C2857      N2862   1.360       .  A
C2857      C3132   1.485       .  S
N2858      C2859   1.357       .  A
C2859      N2860   1.356       .  A
C2859      C2977   1.465       .  S
N2860      C2861   1.358       .  A
C2861      N2862   1.359       .  A
C2861      C3016   1.462       .  S
C2863      N2864   1.362       .  A
C2863      N2868   1.358       .  A
C2863      C3097   1.484       .  S
N2864      C2865   1.361       .  A
C2865      N2866   1.360       .  A
C2865      C2898   1.469       .  S
N2866      C2867   1.357       .  A
C2867      N2868   1.355       .  A
C2867      C2954   1.466       .  S
C2869      N2870   1.360       .  A
C2869      N2874   1.358       .  A
C2869      C3108   1.483       .  S
N2870      C2871   1.360       .  A
C2871      N2872   1.360       .  A
C2871      C2960   1.467       .  S
N2872      C2873   1.357       .  A
C2873      N2874   1.355       .  A
C2873      C2892   1.465       .  S
C2875      N2876   1.361       .  A
C2875      N2880   1.359       .  A
C2875      C3073   1.483       .  S
N2876      C2877   1.359       .  A
C2877      N2878   1.357       .  A
C2877      C2915   1.463       .  S
N2878      C2879   1.356       .  A
C2879      N2880   1.356       .  A
C2879      C3033   1.462       .  S
C2881      N2882   1.360       .  A
C2881      N2886   1.356       .  A
C2881      C3084   1.479       .  S
N2882      C2883   1.359       .  A
C2883      N2884   1.359       .  A
C2883      C3039   1.466       .  S
N2884      C2885   1.358       .  A
C2885      N2886   1.354       .  A
C2885      C2909   1.462       .  S
O2887     Zr2899   2.449       .  S
O2887      C2889   1.289       .  A
O2888     Zr2925   2.426       .  S
O2888      C2889   1.287       .  A
O2890      C2892   1.287       .  A
O2891     Zr2926   2.418       .  S
O2893      C2895   1.287       .  A
O2894     Zr2925   2.429       .  S
O2896     Zr2899   2.445       .  S
O2896      C2898   1.288       .  A
O2897     Zr2926   2.428       .  S
O2897      C2898   1.287       .  A
Zr2899     O2900   2.434       .  S
Zr2899     O2901   2.437       .  S
Zr2899     O2905   2.378       .  S
Zr2899     O2906   2.377       .  S
Zr2899     O2929   2.369       .  S
Zr2899     O2931   2.368       .  S
O2900      H2943   0.990       .  S
O2901      H2942   0.990       .  S
O2901      H2946   0.990       .  S
Zr2902     O2903   2.435       .  S
Zr2902     O2906   2.367       .  S
Zr2902     O2905   2.376       .  S
O2903      H2944   0.990       .  S
O2904      H2937   0.990       .  S
O2905     Zr2925   2.385       .  S
O2906     Zr2926   2.383       .  S
O2906      H2933   0.967       .  S
O2907     Zr2919   2.442       .  S
O2907      C2909   1.288       .  A
O2908     Zr2926   2.414       .  S
O2908      C2909   1.284       .  A
O2910      C2912   1.287       .  A
O2911     Zr2925   2.435       .  S
O2913      C2915   1.286       .  A
O2914     Zr2926   2.428       .  S
O2916     Zr2919   2.434       .  S
O2916      C2918   1.287       .  A
O2917     Zr2925   2.426       .  S
O2917      C2918   1.286       .  A
Zr2919     O2920   2.435       .  S
Zr2919     O2921   2.435       .  S
Zr2919     O2927   2.370       .  S
Zr2919     O2928   2.376       .  S
Zr2919     O2931   2.367       .  S
Zr2919     O2929   2.366       .  S
O2920      H2940   0.990       .  S
O2920      H2945   0.990       .  S
O2921      H2941   0.990       .  S
Zr2922     O2923   2.435       .  S
Zr2922     O2928   2.376       .  S
Zr2922     O2927   2.376       .  S
O2923      H2939   0.990       .  S
O2924      H2938   0.990       .  S
O2924      H2948   0.990       .  S
Zr2925     O2928   2.382       .  S
Zr2925     O2931   2.387       .  S
Zr2926     O2927   2.383       .  S
Zr2926     O2929   2.381       .  S
O2927      H2935   0.966       .  S
O2930      H2934   0.966       .  S
O2931      H2936   0.966       .  S
O2949      C2951   1.287       .  A
O2950     Zr2987   2.422       .  S
O2952     Zr2964   2.444       .  S
O2952      C2954   1.288       .  A
O2953     Zr2988   2.424       .  S
O2953      C2954   1.285       .  A
O2955      C2957   1.289       .  A
O2956     Zr2987   2.426       .  S
O2956      C2957   1.286       .  A
O2958      C2960   1.288       .  A
O2959     Zr2988   2.428       .  S
Zr2961     O2962   2.435       .  S
Zr2961     O2968   2.374       .  S
O2963      H3008   0.990       .  S
Zr2964     O2965   2.436       .  S
Zr2964     O2966   2.435       .  S
Zr2964     O2968   2.375       .  S
Zr2964     O2994   2.372       .  S
O2965      H3006   0.990       .  S
O2965      H3009   0.990   1_655  S
O2967     Zr2987   2.384       .  S
O2968     Zr2988   2.385       .  S
O2968      H2995   0.965       .  S
O2969      C2971   1.288       .  A
O2970     Zr2988   2.425       .  S
O2972      C2974   1.287       .  A
O2973     Zr2987   2.434       .  S
O2973      C2974   1.288       .  A
O2975     Zr2984   2.439       .  S
O2975      C2977   1.287       .  A
O2976     Zr2988   2.426       .  S
O2976      C2977   1.286       .  A
O2978      C2980   1.286       .  A
O2979     Zr2987   2.425       .  S
Zr2981     O2982   2.435       .  S
Zr2981     O2989   2.371       .  S
O2982      H3002   0.990       .  S
O2983      H3003   0.990       .  S
Zr2984     O2985   2.434       .  S
Zr2984     O2986   2.436       .  S
Zr2984     O2989   2.374       .  S
Zr2984     O2994   2.372       .  S
O2986      H3000   0.990       .  S
O2986      H3010   0.990       .  S
Zr2987     O2990   2.381       .  S
Zr2987     O2992   2.381       .  S
Zr2988     O2989   2.386       .  S
Zr2988     O2994   2.387       .  S
O2989      H2997   0.966       .  S
O2992      H2996   0.965       .  S
O2993      H2998   0.964       .  S
O3011      C3013   1.289       .  A
O3012     Zr3049   2.424       .  S
O3014      C3016   1.287       .  A
O3015     Zr3050   2.419       .  S
O3015      C3016   1.285       .  A
O3017     Zr3026   2.447       .  S
O3017      C3019   1.288       .  A
O3018     Zr3049   2.424       .  S
O3018      C3019   1.286       .  A
O3020      C3022   1.286       .  A
O3021     Zr3050   2.424       .  S
Zr3023     O3024   2.436       .  S
Zr3023     O3029   2.377       .  S
O3024      H3067   0.990       .  S
Zr3026     O3027   2.435       .  S
Zr3026     O3029   2.373       .  S
Zr3026     O3054   2.371       .  S
O3027      H3071   0.990       .  S
O3029     Zr3049   2.383       .  S
O3030     Zr3050   2.383       .  S
O3030      H3057   0.967       .  S
O3031      C3033   1.288       .  A
O3032     Zr3050   2.424       .  S
O3034     Zr3046   2.445       .  S
O3034      C3036   1.288       .  A
O3035     Zr3049   2.432       .  S
O3035      C3036   1.287       .  A
O3037      C3039   1.289       .  A
O3038     Zr3050   2.418       .  S
O3038      C3039   1.285       .  A
O3040      C3042   1.286       .  A
O3041     Zr3049   2.422       .  S
Zr3043     O3044   2.436       .  S
Zr3043     O3052   2.375       .  S
Zr3046     O3047   2.435       .  S
Zr3046     O3048   2.435       .  S
Zr3046     O3052   2.375       .  S
Zr3046     O3054   2.365       .  S
O3047      H3063   0.990       .  S
O3048      H3072   0.990   1_565  S
Zr3049     O3052   2.383       .  S
Zr3049     O3054   2.386       .  S
Zr3050     O3051   2.384       .  S
Zr3050     O3056   2.382       .  S
O3051      H3059   0.967       .  S
O3054      H3058   0.966       .  S
O3055      H3060   0.967       .  S
C3073      C3074   1.406       .  A
C3073      C3078   1.406       .  A
C3074      C3075   1.395       .  A
C3074      H3087   1.083       .  S
C3075      C3076   1.402       .  A
C3075      H3088   1.084       .  S
C3076      C3077   1.410       .  A
C3076      C3079   1.488       .  S
C3077      C3078   1.399       .  A
C3077      H3089   1.080       .  S
C3078      H3090   1.083       .  S
C3079      C3080   1.346       .  D
C3079      H3091   1.085       .  S
C3080      C3081   1.484       .  S
C3080      H3092   1.083       .  S
C3081      C3082   1.402       .  A
C3081      C3086   1.408       .  A
C3082      C3083   1.395       .  A
C3082      H3093   1.083       .  S
C3083      C3084   1.406       .  A
C3083      H3094   1.083       .  S
C3084      C3085   1.404       .  A
C3085      C3086   1.397       .  A
C3085      H3095   1.083       .  S
C3086      H3096   1.081       .  S
C3097      C3098   1.407       .  A
C3097      C3102   1.406       .  A
C3098      C3099   1.395       .  A
C3098      H3111   1.083       .  S
C3099      C3100   1.401       .  A
C3099      H3112   1.084       .  S
C3100      C3101   1.410       .  A
C3100      C3103   1.487       .  S
C3101      C3102   1.400       .  A
C3101      H3113   1.081       .  S
C3102      H3114   1.083       .  S
C3103      C3104   1.345       .  D
C3103      H3115   1.085       .  S
C3104      C3105   1.485       .  S
C3104      H3116   1.085       .  S
C3105      C3106   1.400       .  A
C3105      C3110   1.410       .  A
C3106      C3107   1.393       .  A
C3106      H3117   1.084       .  S
C3107      C3108   1.406       .  A
C3107      H3118   1.083       .  S
C3108      C3109   1.407       .  A
C3109      C3110   1.401       .  A
C3109      H3119   1.083       .  S
C3110      H3120   1.081       .  S
C3121      C3122   1.406       .  A
C3121      C3126   1.407       .  A
C3122      C3123   1.396       .  A
C3122      H3135   1.083       .  S
C3123      C3124   1.402       .  A
C3123      H3136   1.083       .  S
C3124      C3125   1.409       .  A
C3124      C3127   1.487       .  S
C3125      C3126   1.400       .  A
C3125      H3137   1.081       .  S
C3126      H3138   1.083       .  S
C3127      C3128   1.347       .  D
C3127      H3139   1.084       .  S
C3128      C3129   1.490       .  S
C3128      H3140   1.085       .  S
C3129      C3130   1.402       .  A
C3129      C3134   1.410       .  A
C3130      C3131   1.396       .  A
C3130      H3141   1.083       .  S
C3131      C3132   1.406       .  A
C3131      H3142   1.083       .  S
C3132      C3133   1.406       .  A
C3133      C3134   1.400       .  A
C3133      H3143   1.083       .  S
C3134      H3144   1.081       .  S
C3145      C3146   1.406       .  A
C3145      C3150   1.408       .  A
C3146      C3147   1.398       .  A
C3146      H3159   1.083       .  S
C3147      C3148   1.404       .  A
C3147      H3160   1.084       .  S
C3148      C3149   1.411       .  A
C3148      C3151   1.497       .  S
C3149      C3150   1.405       .  A
C3149      H3161   1.080       .  S
C3150      H3162   1.083       .  S
C3151      C3152   1.351       .  D
C3151      H3163   1.083       .  S
C3152      C3153   1.498       .  S
C3152      H3164   1.083       .  S
C3153      C3154   1.405       .  A
C3153      C3158   1.412       .  A
C3154      C3155   1.400       .  A
C3154      H3165   1.083       .  S
C3155      C3156   1.407       .  A
C3155      H3166   1.083       .  S
C3156      C3157   1.404       .  A
C3157      C3158   1.401       .  A
C3157      H3167   1.083       .  S
C3158      H3168   1.079       .  S
C3169      C3170   1.406       .  A
C3169      C3174   1.407       .  A
C3170      C3171   1.397       .  A
C3170      H3183   1.083       .  S
C3171      C3172   1.404       .  A
C3171      H3184   1.083       .  S
C3172      C3173   1.410       .  A
C3172      C3175   1.493       .  S
C3173      C3174   1.402       .  A
C3173      H3185   1.080       .  S
C3174      H3186   1.083       .  S
C3175      C3176   1.349       .  D
C3175      H3187   1.084       .  S
C3176      C3177   1.492       .  S
C3176      H3188   1.084       .  S
C3177      C3178   1.403       .  A
C3177      C3182   1.410       .  A
C3178      C3179   1.398       .  A
C3178      H3189   1.084       .  S
C3179      C3180   1.408       .  A
C3179      H3190   1.083       .  S
C3180      C3181   1.406       .  A
C3181      C3182   1.401       .  A
C3181      H3191   1.083       .  S
C3182      H3192   1.081       .  S
C3193      C3194   1.406       .  A
C3193      C3198   1.406       .  A
C3194      C3195   1.398       .  A
C3194      H3207   1.083       .  S
C3195      C3196   1.405       .  A
C3195      H3208   1.083       .  S
C3196      C3197   1.410       .  A
C3196      C3199   1.494       .  S
C3197      C3198   1.401       .  A
C3197      H3209   1.080       .  S
C3198      H3210   1.083       .  S
C3199      C3200   1.351       .  D
C3199      H3211   1.082       .  S
C3200      C3201   1.496       .  S
C3200      H3212   1.083       .  S
C3201      C3202   1.405       .  A
C3201      C3206   1.411       .  A
C3202      C3203   1.399       .  A
C3202      H3213   1.083       .  S
C3203      C3204   1.406       .  A
C3203      H3214   1.083       .  S
C3204      C3205   1.405       .  A
C3205      C3206   1.400       .  A
C3205      H3215   1.083       .  S
C3206      H3216   1.079       .  S
