geometry optimzed in LAMMPS
_audit_creation_date              2020-11-30 
_audit_creation_method            'lammps2cif' 
_symmetry_space_group_name_H-M    'P1' 
_symmetry_Int_Tables_number       1 
_symmetry_cell_setting            triclinic 
loop_ 
_symmetry_equiv_pos_as_xyz 
  x,y,z 
_cell_length_a                    23.49256049268148 
_cell_length_b                    23.55903235704721 
_cell_length_c                    22.052169496952594 
_cell_angle_alpha                 91.81541683077437 
_cell_angle_beta                  88.75715403543836 
_cell_angle_gamma                 91.34650102977217 
loop_ 
_atom_site_label 
_atom_site_type_symbol 
_atom_site_fract_x 
_atom_site_fract_y 
_atom_site_fract_z 
_atom_site_charge 
C1          C  0.33237749  0.63622797  0.63017710     0.00290
C2          C  0.45945822  0.46289765  0.72694687     0.45240
N3          N  0.48984248  0.42746437  0.64099230     0.04130
C4          C  0.65265611  0.61137606  0.47174308    -0.03750
H5          H  0.46690288  0.58340423  0.40326203     0.09620
C6          C  0.54528251  0.44138560  0.27784327    -0.04100
Co7        Co  0.56272278  0.52225569  0.58881483     0.74180
N8          N  0.51377975  0.55690658  0.47577906    -0.23280
Co9        Co  0.58098999  0.52729067  0.43011318     0.74070
C10         C  0.51199503  0.49003919  0.26097787     0.45340
N11         N  0.49212784  0.43674338  0.44899456     0.03740
N12         N  0.53786105  0.49981856  0.35380576     0.03850
N13         N  0.59354033  0.63551429  0.54595475    -0.44130
H14         H  0.51881681  0.53940737  0.71833233     0.09610
N15         N  0.50481083  0.55438988  0.53520450     0.04130
N16         N  0.64420105  0.48149951  0.39962840     0.03870
C17         C  0.72050148  0.44872073  0.43106359     0.45480
N18         N  0.48032551  0.43711658  0.50747176    -0.22740
C19         C  0.64868995  0.45016367  0.53821992    -0.03660
N20         N  0.46130243  0.41515206  0.69148447    -0.43840
N21         N  0.69770216  0.49592760  0.41197980    -0.44060
C22         C  0.66242347  0.41637691  0.58747893     0.45250
N23         N  0.60490957  0.58059722  0.54323616     0.04120
N24         N  0.51642022  0.31315132  0.50269900    -0.22760
N25         N  0.51536298  0.47676896  0.64668908    -0.23250
N26         N  0.53942460  0.31684299  0.44837907     0.03760
H27         H  0.50501072  0.24443771  0.56263045     0.09650
H28         H  0.67363713  0.36374666  0.44347437     0.09690
N29         N  0.63132461  0.56525359  0.49440135    -0.23300
N30         N  0.54874962  0.44805150  0.33713669    -0.22910
N31         N  0.57787121  0.40201884  0.56254572     0.04130
C32         C  0.43892951  0.59905515  0.50289999     0.45520
C33         C  0.43112385  0.46429213  0.51658517    -0.04160
N34         N  0.63063087  0.42725359  0.40686466    -0.22910
H35         H  0.54872240  0.40032178  0.25474993     0.09670
N36         N  0.45968431  0.58164919  0.55440790    -0.44130
H37         H  0.40984627  0.46201958  0.55721254     0.09660
C38         C  0.55133162  0.22986204  0.47176445     0.45360
C39         C  0.50561413  0.49732971  0.70262227    -0.03660
Co40       Co  0.49950746  0.37432432  0.56713194     0.73820
N41         N  0.44791169  0.45513203  0.41991505    -0.43850
C42         C  0.62171781  0.65942745  0.49955495     0.45620
N43         N  0.61638224  0.38434968  0.59902846    -0.43840
Co44       Co  0.54872647  0.38719651  0.39715793     0.73890
C45         C  0.67564597  0.40443507  0.42678882    -0.04170
C46         C  0.47144791  0.57952866  0.45121996    -0.03730
N47         N  0.59196317  0.44999376  0.53655302    -0.23260
N48         N  0.51999049  0.52828802  0.30740378    -0.44020
H49         H  0.66509851  0.60510245  0.42757659     0.09630
C50         C  0.51608156  0.25874879  0.51766420    -0.04140
Cl51       Cl  0.54482869  0.45030045  0.49520145    -0.47140
C52         C  0.40398814  0.46301731  0.45900280     0.45390
H53         H  0.67320066  0.48534985  0.52339062     0.09600
N54         N  0.55240774  0.26613469  0.42566391    -0.43860
C55         C  0.70485320  0.29979346  0.64842241     0.00290
C56         C  0.36913984  0.31390801  0.31891221     0.00290
C57         C  0.66323142  0.61491453  0.30651707     0.00290
C58         C  0.34778660  0.61323762  0.31269746     0.00290
C59         C  0.71523470  0.30101140  0.34011500     0.00290
C60         C  0.35693250  0.33620519  0.63472047     0.00290
C61         C  0.68659747  0.62754178  0.65343701     0.00290
C62         C  0.28997882  0.20850550  0.00860500     0.03340
C63         C  0.28137527  0.21304527  0.94306185     0.03340
C64         C  0.29158253  0.94854217  0.22791536     0.03340
C65         C  0.30814095  0.00846460  0.22673895     0.03340
C66         C  0.00663983  0.21153006  0.23549637     0.03340
C67         C  0.06781063  0.22215695  0.24065797     0.03340
C68         C  0.50949636  0.20731882  0.27060783     0.03340
C69         C  0.57306115  0.21707305  0.26888426     0.03340
C70         C  0.27883746  0.22207783  0.45781975     0.03340
C71         C  0.27740186  0.22118165  0.52503052     0.03340
C72         C  0.25957666  0.47970911  0.24490557     0.03340
C73         C  0.25867195  0.41965392  0.23028231     0.03340
C74         C  0.25081115  0.72016078  0.02548381     0.03340
C75         C  0.23865517  0.71365914  0.95995254     0.03340
C76         C  0.79526174  0.23676267  0.93666330     0.03340
C77         C  0.80098494  0.24443348  0.00636677     0.03340
C78         C  0.00446973  0.24062533  0.74435122     0.03340
C79         C  0.06682490  0.23416065  0.73996978     0.03340
C80         C  0.75417633  0.41996799  0.21400319     0.03340
C81         C  0.74834047  0.48198883  0.22117175     0.03340
C82         C  0.26735658  0.52172220  0.74262830     0.03340
C83         C  0.26964581  0.45998488  0.74537416     0.03340
C84         C  0.85284974  0.66510087  0.82345776     0.00290
C85         C  0.79038895  0.50158179  0.99668074     0.45240
N86         N  0.87605308  0.53423008  0.98321026     0.04130
C87         C  0.07701990  0.36575306  0.09215094    -0.03750
H88         H  0.08024247  0.50803060  0.20880696     0.09620
C89         C  0.08650695  0.65884373  0.02217148    -0.04100
Co90       Co  0.94223822  0.44914814  0.04592567     0.74180
N91         N  0.02631776  0.50038524  0.12953924    -0.23280
Co92       Co  0.07900993  0.48815853  0.05246088     0.74070
C93         C  0.06603226  0.65103182  0.08371680     0.45340
N94         N  0.01473597  0.62807415  0.91497121     0.03740
N95         N  0.09967547  0.57300858  0.04730198     0.03850
N96         N  0.99352442  0.33591902  0.06209276    -0.44130
H97         H  0.81543634  0.45976871  0.08326954     0.09610
N98         N  0.97192755  0.48557565  0.12548250     0.04130
N99         N  0.12329022  0.46803516  0.96976957     0.03870
C100        C  0.21418251  0.46796559  0.96775467     0.45480
N101        N  0.96217711  0.60849222  0.91949665    -0.22740
C102        C  0.94416774  0.35806734  0.95258412    -0.03660
N103        N  0.82340911  0.53741809  0.96414188    -0.43840
N104        N  0.16742708  0.43545079  0.97401757    -0.44060
C105        C  0.96628919  0.36084340  0.89380747     0.45250
N106        N  0.00153844  0.39090260  0.05573552     0.04120
N107        N  0.99257535  0.50976177  0.84427966    -0.22760
N108        N  0.87809883  0.50564234  0.03341173    -0.23250
N109        N  0.03635067  0.54372553  0.84443807     0.03760
H110        H  0.93855863  0.48081446  0.77192625     0.09650
H111        H  0.21776528  0.55061617  0.91662818     0.09690
N112        N  0.05340152  0.40763585  0.06506667    -0.23300
N113        N  0.09936358  0.60642131  0.00128014    -0.22910
N114        N  0.92529898  0.43858452  0.91635324     0.04130
C115        C  0.98805232  0.48402483  0.22168041     0.45520
C116        C  0.93019659  0.65171381  0.92883967    -0.04160
N117        N  0.13565812  0.51135327  0.93556529    -0.22910
H118        H  0.07818087  0.69488260  0.99572311     0.09670
N119        N  0.94813015  0.47608479  0.17884628    -0.44130
H120        H  0.88569421  0.64454181  0.93847548     0.09660
C121        C  0.01852274  0.53286422  0.74995418     0.45360
C122        C  0.82473934  0.49168663  0.05020247    -0.03660
Co123      Co  0.93737203  0.52304398  0.91589984     0.73820
N124        N  0.02073134  0.68390627  0.91366454    -0.43850
C125        C  0.04418704  0.31454758  0.07126640     0.45620
N126        N  0.94863516  0.40929213  0.87151695    -0.43840
Co127      Co  0.07423986  0.57252141  0.92281465     0.73890
C128        C  0.19308495  0.51463163  0.93205122    -0.04170
C129        C  0.03894733  0.50360842  0.18893219    -0.03730
N130        N  0.92529522  0.41008967  0.96643428    -0.23260
N131        N  0.08441152  0.60012552  0.09624406    -0.44020
H132        H  0.11641485  0.36940793  0.11429592     0.09630
C133        C  0.97965621  0.49715321  0.78609853    -0.04140
Cl134      Cl  0.00747568  0.51024201  0.98635226    -0.47140
C135        C  0.96853904  0.70293480  0.92402800     0.45390
H136        H  0.94506413  0.32143076  0.97949509     0.09600
N137        N  0.03854949  0.56951584  0.79266963    -0.43860
C138        C  0.89015652  0.31452669  0.15435637     0.00290
C139        C  0.19244714  0.32112510  0.82823608     0.00290
C140        C  0.17217725  0.63048377  0.81461364     0.00290
C141        C  0.86570897  0.33792872  0.81760666     0.00290
C142        C  0.83719179  0.62893897  0.14051672     0.00290
C143        C  0.79652201  0.45507937  0.72256408     0.03340
C144        C  0.79301436  0.51713609  0.74210159     0.03340
C145        C  0.17848024  0.61381311  0.16565675     0.00290
C146        C  0.19714363  0.29156821  0.12714939     0.00290
C147        C  0.28623667  0.99291400  0.73902134     0.03340
C148        C  0.28639332  0.93118735  0.74479554     0.03340
C149        C  0.54302495  0.69618944  0.22211887     0.03340
C150        C  0.48078589  0.69166784  0.22373157     0.03340
C151        C  0.55460791  0.23882042  0.72063127     0.03340
C152        C  0.49272462  0.24269382  0.70566713     0.03340
C153        C  0.69025508  0.14838397  0.80269524     0.00290
C154        C  0.45635671  0.11411266  0.93933688     0.45240
N155        N  0.44931692  0.04753572  0.00282460     0.04130
C156        C  0.59009797  0.93158864  0.14985371    -0.03750
H157        H  0.62728273  0.14443435  0.10750538     0.09620
C158        C  0.76014137  0.98511989  0.95388932    -0.04100
Co159      Co  0.47314788  0.01422840  0.04556449     0.74180
N160        N  0.57216437  0.07216689  0.09482858    -0.23280
Co161      Co  0.62669683  0.00612140  0.04957458     0.74070
C162        C  0.77524661  0.96681164  0.01440098     0.45340
N163        N  0.61749315  0.04624308  0.95650783     0.03740
N164        N  0.68632097  0.95081919  0.00018700     0.03850
N165        N  0.49547081  0.93663097  0.14516389    -0.44130
H166        H  0.37510417  0.14901239  0.96663272     0.09610
N167        N  0.51646635  0.07235719  0.09404689     0.04130
N168        N  0.57536452  0.94938787  0.99042449     0.03870
C169        C  0.57732181  0.85988562  0.96301177     0.45480
N170        N  0.56954928  0.07149970  0.95611304    -0.22740
C171        C  0.42822658  0.89454357  0.00836205    -0.03660
N172        N  0.46990580  0.06043876  0.94874127    -0.43840
N173        N  0.56520850  0.89653621  0.00892253    -0.44060
C174        C  0.45199093  0.86193274  0.95809039     0.45250
N175        N  0.51973107  0.96187859  0.09935433     0.04120
N176        N  0.52984453  0.01439007  0.83535937    -0.22760
N177        N  0.40748831  0.07983279  0.01647698    -0.23250
N178        N  0.58497770  0.01250878  0.82469565     0.03760
H179        H  0.45697271  0.99936658  0.77994512     0.09650
H180        H  0.62469036  0.88247695  0.87912374     0.09690
N181        N  0.57586724  0.96024028  0.10251266    -0.23300
N182        N  0.70382778  0.97462438  0.95011101    -0.22910
N183        N  0.46039471  0.94973463  0.93738303     0.04130
C184        C  0.53635809  0.15976381  0.12208450     0.45520
C185        C  0.57913625  0.12142560  0.98611343    -0.04160
N186        N  0.58956644  0.94643667  0.93198075    -0.22910
H187        H  0.78624271  0.00819530  0.92166920     0.09670
N188        N  0.49518189  0.12138656  0.10913792    -0.44130
H189        H  0.54935574  0.15270441  0.99658770     0.09660
C190        C  0.54629090  0.98662164  0.73933845     0.45360
C191        C  0.40756517  0.12004340  0.97482083    -0.03660
Co192      Co  0.49006129  0.03377449  0.91622616     0.73820
N193        N  0.65494826  0.07059280  0.99261019    -0.43850
C194        C  0.53735431  0.91329042  0.17622371     0.45620
N195        N  0.46913905  0.89871519  0.91403872    -0.43840
Co196      Co  0.64475249  0.99676236  0.88941379     0.73890
C197        C  0.59349503  0.89321097  0.91307721    -0.04170
C198        C  0.58659382  0.12583398  0.11424549    -0.03730
N199        N  0.43972999  0.94711245  0.99288884    -0.23260
N200        N  0.73165567  0.93307428  0.02704367    -0.44020
H201        H  0.63157046  0.92925902  0.16693593     0.09630
C202        C  0.50276420  0.00315955  0.78377027    -0.04140
Cl203      Cl  0.56212387  0.00410856  0.97141348    -0.47140
C204        C  0.63832480  0.12299510  0.00454480     0.45390
H205        H  0.41544176  0.88329136  0.05278125     0.09600
N206        N  0.59609122  0.99813213  0.76747490    -0.44220
C207        C  0.67262074  0.79895192  0.15171101     0.00290
C208        C  0.34963794  0.78731244  0.82701065     0.00290
C209        C  0.36729112  0.14447301  0.78951661     0.00290
C210        C  0.66094953  0.81253163  0.79173015     0.00290
C211        C  0.36269729  0.80187111  0.15246409     0.00290
C212        C  0.47089097  0.71894668  0.70101644     0.03340
C213        C  0.53341340  0.71158499  0.70735986     0.03340
C214        C  0.38537410  0.14734681  0.14670451     0.00290
C215        C  0.72461881  0.15787204  0.16352307     0.00290
C216        C  0.96834096  0.71938408  0.25074004     0.03340
C217        C  0.03287189  0.71372960  0.25149871     0.03340
C218        C  0.77136606  0.94224139  0.22999504     0.03340
C219        C  0.78302824  0.00412407  0.24119911     0.03340
C220        C  0.80088245  0.20075864  0.52481532     0.03340
C221        C  0.78699731  0.19675360  0.46005456     0.03340
C222        C  0.24686162  0.70901725  0.48522354     0.03340
C223        C  0.24553613  0.71501720  0.41838974     0.03340
C224        C  0.88367293  0.11952330  0.33076745     0.00290
C225        C  0.99683206  0.05262142  0.46128424     0.45240
N226        N  0.00722126  0.99015900  0.38550821     0.04130
C227        C  0.11487669  0.80133827  0.48897682    -0.03750
H228        H  0.12800256  0.99764234  0.58126723     0.09620
C229        C  0.11056965  0.09605295  0.39832233    -0.04100
Co230      Co  0.99011794  0.88099990  0.46001634     0.74180
N231        N  0.08192832  0.93389447  0.53012107    -0.23280
Co232      Co  0.12006551  0.92533718  0.44998606     0.74070
C233        C  0.10997142  0.10282272  0.46204515     0.45340
N234        N  0.04429111  0.04630941  0.28580371     0.03740
N235        N  0.12323662  0.01533245  0.44078799     0.03850
N236        N  0.04031252  0.77303868  0.43592544    -0.44130
H237        H  0.97853767  0.98844083  0.52538344     0.09610
N238        N  0.03361628  0.90787708  0.53904262     0.04130
N239        N  0.16796239  0.90505256  0.37877056     0.03870
C240        C  0.24837010  0.92887975  0.41753051     0.45480
N241        N  0.00510364  0.01707421  0.25780428    -0.22740
C242        C  0.93672722  0.86945914  0.44426908    -0.03660
N243        N  0.99956618  0.04502618  0.39984204    -0.43840
N244        N  0.21334237  0.88523062  0.40392982    -0.44060
C245        C  0.89723191  0.91927793  0.45018756     0.45250
N246        N  0.05361934  0.82648690  0.42639261     0.04120
N247        N  0.02857489  0.90752255  0.25883982    -0.22760
N248        N  0.01002533  0.96254680  0.43644061    -0.23250
N249        N  0.08174772  0.92729810  0.25869901     0.03760
H250        H  0.98233480  0.85173894  0.19606236     0.09650
H251        H  0.23802312  0.01977515  0.38444857     0.09690
N252        N  0.10148078  0.84143611  0.45126368    -0.23300
N253        N  0.12093528  0.04171392  0.38912559    -0.22910
N254        N  0.92449128  0.90318457  0.35613197     0.04130
C255        C  0.04851716  0.95975215  0.62032182     0.45520
C256        C  0.00405004  0.03199433  0.19973066    -0.04160
N257        N  0.17701721  0.95416733  0.35603208    -0.22910
H258        H  0.08996846  0.12216375  0.36715251     0.09670
N259        N  0.01093828  0.92486221  0.59181785    -0.44130
H260        H  0.97947959  0.01062833  0.16456134     0.09660
C261        C  0.07858120  0.86827968  0.18162005     0.45360
C262        C  0.99921642  0.99925705  0.48360667    -0.03660
Co263      Co  0.96725528  0.95577901  0.30465448     0.73820
N264        N  0.06245077  0.08807822  0.25243878    -0.43850
C265        C  0.06881416  0.75817051  0.48471217     0.45620
N266        N  0.89820180  0.93873631  0.39392856    -0.43840
Co267      Co  0.10716563  0.99335039  0.31955024     0.73890
C268        C  0.22495900  0.97552526  0.38286609    -0.04170
C269        C  0.09463212  0.96603145  0.57841806    -0.03730
N270        N  0.94809850  0.86178396  0.38404592    -0.23260
N271        N  0.11006179  0.05041306  0.48508281    -0.44020
H272        H  0.14038837  0.81121413  0.52677198     0.09630
C273        C  0.02236221  0.86955229  0.21191331    -0.04140
Cl274      Cl  0.04136398  0.94032509  0.38374385    -0.47140
C275        C  0.04803764  0.07673693  0.19455590     0.45390
H276        H  0.93084880  0.83125223  0.47197613     0.09600
N277        N  0.11230158  0.90410734  0.21462192    -0.43860
C278        C  0.83235833  0.81135336  0.32945426     0.00290
C279        C  0.18157059  0.81470957  0.27401360     0.00290
C280        C  0.19861989  0.81900752  0.62809996     0.00290
C281        C  0.88943917  0.12336235  0.66063401     0.00290
C282        C  0.86787790  0.79405311  0.62573798     0.00290
C283        C  0.76874341  0.68947608  0.43275049     0.03340
C284        C  0.76634800  0.69871222  0.49949029     0.03340
C285        C  0.20494280  0.13170360  0.30221174     0.00290
C286        C  0.19082271  0.12823827  0.66319323     0.00290
C287        C  0.05854209  0.73646117  0.72505523     0.03340
C288        C  0.99587167  0.72472715  0.72629511     0.03340
C289        C  0.78015619  0.93391668  0.71937586     0.03340
C290        C  0.77488144  0.99734654  0.72371073     0.03340
C291        C  0.72606374  0.71205740  0.93780390     0.03340
C292        C  0.73677480  0.70539400  0.00478844     0.03340
C293        C  0.89994695  0.76476207  0.67524129    -0.10490
C294        C  0.94735140  0.75172227  0.69602509    -0.12050
C295        C  0.84621108  0.85457639  0.65225599    -0.10490
C296        C  0.82166196  0.89727246  0.67853672    -0.12050
C297        C  0.82011312  0.76343871  0.58826368    -0.10490
C298        C  0.79606777  0.74056809  0.54266094    -0.12050
C299        C  0.84105808  0.08464723  0.68346772    -0.10490
C300        C  0.81399247  0.04020026  0.69566853    -0.12050
C301        C  0.13707208  0.80274761  0.65615569    -0.10490
C302        C  0.09549676  0.77725887  0.68416808    -0.12050
C303        C  0.78567118  0.72875113  0.38534597    -0.10490
C304        C  0.79800852  0.76021104  0.34334986    -0.12050
C305        C  0.19787956  0.10917970  0.50524186    -0.10570
C306        C  0.15117698  0.14085510  0.48741480     0.11580
C307        C  0.12291795  0.17399890  0.52951147    -0.10570
C308        C  0.11978699  0.15430939  0.58732248    -0.10570
C309        C  0.15863991  0.11236369  0.60696818     0.11580
C310        C  0.19308854  0.08487932  0.56185696    -0.10570
H311        H  0.22524488  0.08844990  0.47165465     0.15570
H312        H  0.09229319  0.20445731  0.51560494     0.15570
H313        H  0.08979993  0.17617603  0.61640770     0.15570
H314        H  0.22673440  0.05722583  0.57427633     0.15570
C315        C  0.16662357  0.04342638  0.23032816    -0.10570
C316        C  0.18176881  0.10243408  0.24035602     0.11580
C317        C  0.17596409  0.13434703  0.18682935    -0.10570
C318        C  0.12919623  0.12050971  0.14933828    -0.10570
C319        C  0.10004307  0.06914577  0.15631184     0.11580
C320        C  0.13503108  0.02760100  0.17834312    -0.10570
H321        H  0.17911130  0.01148566  0.26067621     0.15570
H322        H  0.19676106  0.17534524  0.18453458     0.15570
H323        H  0.10472483  0.15443405  0.13282847     0.15570
H324        H  0.12870832  0.98480101  0.16255278     0.15570
C325        C  0.02225247  0.79870104  0.57634454    -0.10570
C326        C  0.02836543  0.75219812  0.53613170     0.11580
C327        C  0.98037914  0.71802683  0.52582315    -0.10570
C328        C  0.92731896  0.73539853  0.54718612    -0.10570
C329        C  0.91904299  0.78852402  0.58036532     0.11580
C330        C  0.96888919  0.81823479  0.59490821    -0.10570
H331        H  0.05861683  0.82432299  0.58853119     0.15570
H332        H  0.98308199  0.68057916  0.49615967     0.15570
H333        H  0.89406701  0.70374610  0.54063730     0.15570
H334        H  0.96613056  0.84894289  0.63216469     0.15570
C335        C  0.98549163  0.09697779  0.62135205    -0.10570
C336        C  0.93804361  0.08326689  0.65672434     0.11580
C337        C  0.94504447  0.04213157  0.70232582    -0.10570
C338        C  0.98829857  0.00383772  0.69711257    -0.10570
C339        C  0.02741339  0.00998955  0.65019583     0.11580
C340        C  0.02927815  0.05980123  0.61705837    -0.10570
H341        H  0.98742667  0.13531139  0.59565055     0.15570
H342        H  0.91576943  0.03744859  0.74043896     0.15570
H343        H  0.98779168  0.96691183  0.72522116     0.15570
H344        H  0.05865860  0.06555295  0.58026015     0.15570
C345        C  0.22106779  0.94981303  0.52463043    -0.10570
C346        C  0.26237169  0.93004834  0.48261029     0.11580
C347        C  0.29576963  0.88609918  0.50141008    -0.10570
C348        C  0.27752004  0.85453694  0.55113660    -0.10570
C349        C  0.22242499  0.86278821  0.58017591     0.11580
C350        C  0.20495522  0.91793741  0.57602771    -0.10570
H351        H  0.19715100  0.98562023  0.51311273     0.15570
H352        H  0.33076353  0.87086082  0.47302847     0.15570
H353        H  0.30409945  0.81982020  0.56313566     0.15570
H354        H  0.18146270  0.93479026  0.61437789     0.15570
C355        C  0.10707310  0.77305173  0.14816048    -0.10570
C356        C  0.10366037  0.82996737  0.13317468     0.11580
C357        C  0.15689523  0.85112868  0.11526865    -0.10570
C358        C  0.20055447  0.84033889  0.15576824    -0.10570
C359        C  0.19170371  0.79920171  0.20315347     0.11580
C360        C  0.15576189  0.75764420  0.18104232    -0.10570
H361        H  0.06922185  0.74675970  0.14633822     0.15570
H362        H  0.15977456  0.88977165  0.08980758     0.15570
H363        H  0.22864883  0.87548870  0.15724345     0.15570
H364        H  0.15780168  0.72304482  0.20918550     0.15570
C365        C  0.79536327  0.93354427  0.44418587    -0.10570
C366        C  0.83966299  0.91777316  0.48163634     0.11580
C367        C  0.82920354  0.86273388  0.49780267    -0.10570
C368        C  0.82831413  0.82361542  0.44815178    -0.10570
C369        C  0.81751759  0.84491264  0.38976211     0.11580
C370        C  0.78581746  0.89669909  0.39355107    -0.10570
H371        H  0.77736720  0.97536816  0.44751216     0.15570
H372        H  0.84845863  0.85204356  0.53794341     0.15570
H373        H  0.84925378  0.78373413  0.45282152     0.15570
H374        H  0.75829137  0.91043015  0.35870551     0.15570
C375        C  0.94684782  0.15281319  0.41465578    -0.10570
C376        C  0.91055001  0.10873832  0.38826155     0.11580
C377        C  0.88283867  0.07050400  0.42895649    -0.10570
C378        C  0.90348824  0.06891389  0.48703608    -0.10570
C379        C  0.95869093  0.09167805  0.49291066     0.11580
C380        C  0.96757438  0.14542184  0.47155003    -0.10570
H381        H  0.95873204  0.19156019  0.39207097     0.15570
H382        H  0.84589752  0.04491655  0.41648538     0.15570
H383        H  0.88644220  0.03764744  0.51792245     0.15570
H384        H  0.99984096  0.17403233  0.48993581     0.15570
C385        C  0.20844757  0.78201493  0.32712735    -0.10490
C386        C  0.22099555  0.75824440  0.37601655    -0.12050
C387        C  0.22162635  0.74279125  0.53728304    -0.10490
C388        C  0.21265533  0.76640302  0.58838538    -0.12050
C389        C  0.83946329  0.15633399  0.35916057    -0.10490
C390        C  0.81845570  0.17284152  0.40831727    -0.12050
C391        C  0.84410007  0.16703080  0.55675504    -0.10490
C392        C  0.86969789  0.14660310  0.59991830    -0.12050
C393        C  0.80467747  0.89669614  0.25661304    -0.10490
C394        C  0.81684022  0.85172514  0.28053250    -0.12050
C395        C  0.83091037  0.02682106  0.27725271    -0.10490
C396        C  0.85925489  0.06563437  0.30132415    -0.12050
C397        C  0.07191877  0.76350954  0.27821053    -0.10490
C398        C  0.11529875  0.79750842  0.28596763    -0.12050
C399        C  0.89233284  0.78786418  0.31188150    -0.10490
C400        C  0.93465749  0.76246095  0.28886250    -0.12050
C401        C  0.75987869  0.06309033  0.22425041    -0.10490
C402        C  0.75223433  0.11505392  0.20914711    -0.12050
C403        C  0.71591567  0.84614749  0.77066804    -0.10490
C404        C  0.74431551  0.88930653  0.75303182    -0.12050
C405        C  0.67574149  0.78675771  0.85622659    -0.10490
C406        C  0.69512582  0.75684386  0.89916883    -0.12050
C407        C  0.62443105  0.76459912  0.76205583    -0.10490
C408        C  0.57732322  0.74299158  0.74530740    -0.12050
C409        C  0.42492791  0.74129038  0.74425514    -0.10490
C410        C  0.38030167  0.75562837  0.77355118    -0.12050
C411        C  0.71190360  0.75729274  0.11612072    -0.10490
C412        C  0.72281429  0.73721015  0.06327935    -0.12050
C413        C  0.70293241  0.85561129  0.17942015    -0.10490
C414        C  0.72762881  0.90203566  0.19779965    -0.12050
C415        C  0.80776774  0.05862022  0.05749254    -0.10570
C416        C  0.77432382  0.01085049  0.06282373     0.11580
C417        C  0.72571534  0.01261475  0.10308566    -0.10570
C418        C  0.69929763  0.06225327  0.11696227    -0.10570
C419        C  0.73220695  0.11181219  0.11409781     0.11580
C420        C  0.78974198  0.10687005  0.08767192    -0.10570
H421        H  0.84694332  0.05863743  0.03065557     0.15570
H422        H  0.70245524  0.97506313  0.11656903     0.15570
H423        H  0.66287040  0.05977311  0.14748565     0.15570
H424        H  0.82224439  0.13992264  0.09277676     0.15570
C425        C  0.49883882  0.22324900  0.05172390    -0.10570
C426        C  0.52926096  0.22115939  0.10518758     0.11580
C427        C  0.49916822  0.25562242  0.14802794    -0.10570
C428        C  0.43855505  0.24796911  0.15092298    -0.10570
C429        C  0.41702329  0.20148336  0.11561021     0.11580
C430        C  0.44067675  0.20648704  0.05605725    -0.10570
H431        H  0.51744327  0.24472159  0.01352942     0.15570
H432        H  0.52189061  0.28197137  0.18082857     0.15570
H433        H  0.41275012  0.26230927  0.18869296     0.15570
H434        H  0.41351445  0.21886535  0.02030264     0.15570
C435        C  0.51528157  0.82161354  0.13935801    -0.10570
C436        C  0.52863038  0.85521474  0.19118448     0.11580
C437        C  0.48885436  0.85477685  0.23717952    -0.10570
C438        C  0.43313989  0.85457821  0.21882794    -0.10570
C439        C  0.41778691  0.83583485  0.15681612     0.11580
C440        C  0.46165768  0.82117279  0.11699633    -0.10570
H441        H  0.52490803  0.77817192  0.13763155     0.15570
H442        H  0.49926855  0.87034260  0.28245047     0.15570
H443        H  0.40197100  0.85900500  0.25548575     0.15570
H444        H  0.45220128  0.79229738  0.08038516     0.15570
C445        C  0.58835589  0.91171620  0.67928625    -0.10570
C446        C  0.54117111  0.92868772  0.71358322     0.11580
C447        C  0.52179664  0.89041646  0.75722085    -0.10570
C448        C  0.56272040  0.86245822  0.78923151    -0.10570
C449        C  0.61880108  0.85750352  0.76760067     0.11580
C450        C  0.62635591  0.87569765  0.70556829    -0.10570
H451        H  0.60088078  0.93336216  0.63833077     0.15570
H452        H  0.47966661  0.89452847  0.77756243     0.15570
H453        H  0.55073552  0.84066981  0.82810262     0.15570
H454        H  0.66225418  0.86276009  0.67724145     0.15570
C455        C  0.46886821  0.20784693  0.90116448    -0.10570
C456        C  0.49453880  0.15630241  0.90811785     0.11580
C457        C  0.51204090  0.13207524  0.85293169    -0.10570
C458        C  0.46806587  0.12265374  0.81282938    -0.10570
C459        C  0.41744478  0.15193375  0.82685654     0.11580
C460        C  0.42565909  0.20501693  0.86055629    -0.10570
H461        H  0.47505702  0.24487788  0.93012707     0.15570
H462        H  0.55409610  0.11621255  0.84489934     0.15570
H463        H  0.47381335  0.10032556  0.76985461     0.15570
H464        H  0.39786639  0.24085110  0.85744356     0.15570
C465        C  0.49335592  0.78599674  0.90276235    -0.10570
C466        C  0.47097565  0.80165625  0.95944830     0.11580
C467        C  0.42766819  0.76366518  0.97462642    -0.10570
C468        C  0.38806895  0.75360201  0.93003170    -0.10570
C469        C  0.39585924  0.78233934  0.87361840     0.11580
C470        C  0.45423957  0.79202980  0.85781266    -0.10570
H471        H  0.53784148  0.77897803  0.89346877     0.15570
H472        H  0.43237016  0.73240134  0.00892670     0.15570
H473        H  0.35993505  0.71749642  0.93617382     0.15570
H474        H  0.46859368  0.80511679  0.81426258     0.15570
C475        C  0.66378990  0.83351555  0.99355628    -0.10570
C476        C  0.61122602  0.81262760  0.97592536     0.11580
C477        C  0.58604982  0.77095122  0.01081970    -0.10570
C478        C  0.60293168  0.76798751  0.06987536    -0.10570
C479        C  0.63938491  0.81162837  0.09631930     0.11580
C480        C  0.67156325  0.84214298  0.05452982    -0.10570
H481        H  0.69318544  0.85244131  0.96118194     0.15570
H482        H  0.55555463  0.74034949  0.99257432     0.15570
H483        H  0.59092191  0.72963789  0.09307194     0.15570
H484        H  0.71419113  0.85273944  0.06787314     0.15570
C485        C  0.71386872  0.08878630  0.77470226    -0.10490
C486        C  0.73422367  0.04050992  0.75691230    -0.12050
C487        C  0.63672672  0.18451062  0.89311133    -0.10570
C488        C  0.66835625  0.13780322  0.86546620     0.11580
C489        C  0.71031248  0.11199859  0.90157288    -0.10570
C490        C  0.72414826  0.13976830  0.95678551    -0.10570
C491        C  0.67850584  0.16751999  0.98626283     0.11580
C492        C  0.65080090  0.20548248  0.95094884    -0.10570
H493        H  0.60888572  0.21047338  0.86793141     0.15570
H494        H  0.74079364  0.08259541  0.88240557     0.15570
H495        H  0.75957290  0.12499368  0.98108137     0.15570
H496        H  0.62667558  0.23975345  0.97188425     0.15570
C497        C  0.39638292  0.17931166  0.73802018    -0.10490
C498        C  0.44249497  0.20280019  0.71932194    -0.12050
C499        C  0.63677907  0.17056129  0.76698961    -0.10490
C500        C  0.59141581  0.19241989  0.74749233    -0.12050
C501        C  0.43331022  0.72784150  0.20182006    -0.10490
C502        C  0.38843440  0.75176429  0.18600569    -0.12050
C503        C  0.58452457  0.74418366  0.21082826    -0.10490
C504        C  0.62824411  0.77098382  0.19395426    -0.12050
C505        C  0.23139905  0.84659631  0.68025893    -0.10490
C506        C  0.25183696  0.88829819  0.70922054    -0.12050
C507        C  0.21881428  0.07378585  0.68936076    -0.10490
C508        C  0.24353301  0.03036818  0.70782059    -0.12050
C509        C  0.35292542  0.08191607  0.77346356    -0.10490
C510        C  0.32990472  0.03456636  0.76302543    -0.12050
C511        C  0.33818045  0.84947131  0.80779884    -0.10490
C512        C  0.32198173  0.89460868  0.78466006    -0.12050
C513        C  0.11738683  0.63479869  0.19986606    -0.10490
C514        C  0.07445756  0.66451997  0.22333041    -0.12050
C515        C  0.79631588  0.65017361  0.09063183    -0.10490
C516        C  0.77196199  0.66640410  0.04319470    -0.12050
C517        C  0.91695844  0.68905122  0.21595161    -0.10490
C518        C  0.87089804  0.67023346  0.18931984    -0.12050
C519        C  0.83938002  0.41539399  0.74085082    -0.10490
C520        C  0.85217599  0.37061093  0.76374501    -0.12050
C521        C  0.14052581  0.68141864  0.78864585    -0.10490
C522        C  0.10051345  0.70653041  0.76423100    -0.12050
C523        C  0.11412355  0.31609552  0.99349894    -0.10570
C524        C  0.06970349  0.28234388  0.01932973     0.11580
C525        C  0.08696952  0.22821528  0.03303345    -0.10570
C526        C  0.14151586  0.22651049  0.05591303    -0.10570
C527        C  0.16787213  0.28004972  0.06871085     0.11580
C528        C  0.16613077  0.31729241  0.02222897    -0.10570
H529        H  0.10235897  0.35504260  0.97478906     0.15570
H530        H  0.05762565  0.19224025  0.03555731     0.15570
H531        H  0.16074585  0.18822345  0.06931111     0.15570
H532        H  0.19720249  0.35120320  0.01846608     0.15570
C533        C  0.26737557  0.53444462  0.03633899    -0.10570
C534        C  0.23569539  0.48478905  0.02864620     0.11580
C535        C  0.20009323  0.46957765  0.07810472    -0.10570
C536        C  0.17377035  0.51154810  0.11282957    -0.10570
C537        C  0.19591448  0.56748242  0.11440461     0.11580
C538        C  0.25161945  0.57176233  0.08346937    -0.10570
H539        H  0.30080162  0.54611406  0.00419015     0.15570
H540        H  0.18003148  0.42851448  0.07890777     0.15570
H541        H  0.14011060  0.49874402  0.14211723     0.15570
H542        H  0.28218323  0.60570041  0.09329484     0.15570
C543        C  0.96716259  0.67794106  0.06212455    -0.10570
C544        C  0.00503054  0.65317526  0.09922989     0.11580
C545        C  0.98346726  0.61296427  0.13947227    -0.10570
C546        C  0.93000655  0.58937872  0.13480092    -0.10570
C547        C  0.88987009  0.61668172  0.10265032     0.11580
C548        C  0.91051874  0.65922390  0.06252027    -0.10570
H549        H  0.98139724  0.71304971  0.03535253     0.15570
H550        H  0.00833658  0.59883971  0.17537001     0.15570
H551        H  0.91554139  0.56610752  0.17351802     0.15570
H552        H  0.88198069  0.68403965  0.03784100     0.15570
C553        C  0.76168785  0.45359865  0.89882842    -0.10570
C554        C  0.77365987  0.44930304  0.96024479     0.11580
C555        C  0.79553599  0.39734818  0.97604909    -0.10570
C556        C  0.82551327  0.36501035  0.93252320    -0.10570
C557        C  0.83009321  0.37677521  0.86965208     0.11580
C558        C  0.78406391  0.41371413  0.85634853    -0.10570
H559        H  0.73689278  0.48837880  0.88351369     0.15570
H560        H  0.79887993  0.38601511  0.02291860     0.15570
H561        H  0.84803095  0.33206997  0.95084645     0.15570
H562        H  0.76133802  0.40972493  0.81496667     0.15570
C563        C  0.10693386  0.48393203  0.75299432    -0.10570
C564        C  0.06776210  0.50883235  0.71446744     0.11580
C565        C  0.09447836  0.55161897  0.68085341    -0.10570
C566        C  0.13210139  0.58916664  0.71194161    -0.10570
C567        C  0.14453206  0.58049369  0.77492461     0.11580
C568        C  0.14154760  0.52173451  0.78877032    -0.10570
H569        H  0.10076797  0.44020794  0.76508254     0.15570
H570        H  0.07726615  0.56379115  0.63815602     0.15570
H571        H  0.14698538  0.62667039  0.68872576     0.15570
H572        H  0.16401282  0.50630536  0.82575500     0.15570
C573        C  0.06208568  0.39382070  0.87786439    -0.10570
C574        C  0.02460862  0.34777362  0.88389015     0.11580
C575        C  0.04397645  0.29254272  0.88513072    -0.10570
C576        C  0.10191711  0.28420051  0.87733367    -0.10570
C577        C  0.13941882  0.33160113  0.86431867     0.11580
C578        C  0.11817302  0.38586438  0.86693022    -0.10570
H579        H  0.04858623  0.43678473  0.88286705     0.15570
H580        H  0.01496379  0.25682667  0.89219030     0.15570
H581        H  0.11727177  0.24111917  0.87562503     0.15570
H582        H  0.14428608  0.42273463  0.85941393     0.15570
C583        C  0.94176837  0.41661742  0.28557081    -0.10570
C584        C  0.99372008  0.43615347  0.26195293     0.11580
C585        C  0.02343944  0.39290536  0.23102349    -0.10570
C586        C  0.99194555  0.35689274  0.19161123    -0.10570
C587        C  0.93128041  0.35706336  0.19133613     0.11580
C588        C  0.91198034  0.37531963  0.25092959    -0.10570
H589        H  0.92387960  0.43456838  0.32729430     0.15570
H590        H  0.06955245  0.39367726  0.22834439     0.15570
H591        H  0.01472913  0.32263650  0.17227131     0.15570
H592        H  0.87741773  0.35254521  0.27180221     0.15570
C593        C  0.79063973  0.66954278  0.84484734    -0.10490
C594        C  0.75542089  0.67861683  0.88731618    -0.12050
C595        C  0.90778076  0.66889753  0.78139979    -0.10490
C596        C  0.95657726  0.68399859  0.76068390    -0.12050
C597        C  0.83095260  0.55273914  0.78581070    -0.10490
C598        C  0.84721515  0.59863907  0.81315054    -0.12050
C599        C  0.90063139  0.76991692  0.83587529    -0.10570
C600        C  0.86660274  0.72495642  0.86069017     0.11580
C601        C  0.85607658  0.73922069  0.92441074    -0.10570
C602        C  0.89968171  0.76779325  0.95660627    -0.10570
C603        C  0.95242154  0.76406856  0.92694973     0.11580
C604        C  0.94916154  0.78660638  0.86905333    -0.10570
H605        H  0.89593483  0.78301387  0.79039405     0.15570
H606        H  0.82965088  0.71483653  0.95327486     0.15570
H607        H  0.89720943  0.77178370  0.00557444     0.15570
H608        H  0.98405270  0.81070557  0.84888855     0.15570
C609        C  0.23140421  0.60979218  0.80381782    -0.10490
C610        C  0.25757587  0.56560310  0.79081473    -0.12050
C611        C  0.22395077  0.37648045  0.81061572    -0.10490
C612        C  0.24319053  0.42223401  0.79125849    -0.12050
C613        C  0.80939323  0.57286953  0.16879283    -0.10490
C614        C  0.78579108  0.52803767  0.18968945    -0.12050
C615        C  0.80009454  0.38532191  0.18238622    -0.10490
C616        C  0.83352002  0.34541212  0.16958900    -0.12050
C617        C  0.10209891  0.18273820  0.72445535    -0.10490
C618        C  0.14541018  0.15590155  0.70665699    -0.12050
C619        C  0.91915634  0.16959833  0.70026913    -0.10490
C620        C  0.96056911  0.19812853  0.72079024    -0.12050
C621        C  0.96868180  0.28915355  0.77216155    -0.10490
C622        C  0.92596099  0.31604165  0.79365439    -0.12050
C623        C  0.16156190  0.29381359  0.77341305    -0.10490
C624        C  0.11522082  0.27544194  0.75207353    -0.12050
C625        C  0.76360014  0.22503775  0.06352233    -0.10490
C626        C  0.74585704  0.20642577  0.11602606    -0.12050
C627        C  0.73625928  0.19465045  0.82905638    -0.10490
C628        C  0.75982102  0.21648939  0.87801923    -0.12050
C629        C  0.85011241  0.27514395  0.04163328    -0.10490
C630        C  0.87798927  0.29736199  0.08590306    -0.12050
C631        C  0.83142000  0.25476817  0.88401959    -0.10490
C632        C  0.84497626  0.28278821  0.83898468    -0.12050
C633        C  0.20201951  0.66403678  0.12517027    -0.10490
C634        C  0.21908659  0.69001918  0.07787933    -0.12050
C635        C  0.19760561  0.67143857  0.92864433    -0.10490
C636        C  0.17550378  0.64526658  0.88367861    -0.12050
C637        C  0.29920599  0.75637741  0.05442679    -0.10490
C638        C  0.33305001  0.77931980  0.09261646    -0.12050
C639        C  0.26803366  0.74511407  0.90748116    -0.10490
C640        C  0.29611555  0.76248069  0.86163217    -0.12050
C641        C  0.22619745  0.39167474  0.18165309    -0.10490
C642        C  0.21139589  0.35104584  0.14906686    -0.12050
C643        C  0.22461284  0.52934334  0.22707310    -0.10490
C644        C  0.20843236  0.57767599  0.21189810    -0.12050
C645        C  0.25209799  0.18968188  0.57963180    -0.10490
C646        C  0.23336780  0.16989073  0.62969169    -0.12050
C647        C  0.24809171  0.18244436  0.41137721    -0.10490
C648        C  0.22747594  0.15716279  0.36467173    -0.12050
C649        C  0.66570164  0.17477299  0.19779262    -0.10490
C650        C  0.61976454  0.18878153  0.22693770    -0.12050
C651        C  0.46874929  0.16638959  0.23555775    -0.10490
C652        C  0.42468414  0.15204136  0.20498039    -0.12050
C653        C  0.15240071  0.26930013  0.17282217    -0.10490
C654        C  0.10753586  0.25382697  0.19940955    -0.12050
C655        C  0.92900868  0.14759556  0.29190064    -0.10490
C656        C  0.97134400  0.17242825  0.27117733    -0.12050
C657        C  0.96097886  0.23769596  0.19842744    -0.10490
C658        C  0.91746681  0.26165272  0.17971320    -0.12050
C659        C  0.15405753  0.17333530  0.29905521    -0.10490
C660        C  0.10877428  0.19566700  0.28288502    -0.12050
C661        C  0.31810915  0.90036395  0.19486586    -0.10490
C662        C  0.32757569  0.85026166  0.17850749    -0.12050
C663        C  0.25678703  0.09450468  0.28913112    -0.10490
C664        C  0.28365035  0.05292756  0.26849357    -0.12050
C665        C  0.37106845  0.08276621  0.15688947    -0.10490
C666        C  0.34757073  0.04001575  0.18178302    -0.12050
C667        C  0.24369260  0.91716571  0.26138981    -0.10490
C668        C  0.21112943  0.87515130  0.27402477    -0.12050
C669        C  0.25062352  0.25858362  0.91139237    -0.10490
C670        C  0.22779828  0.28567150  0.87083482    -0.12050
C671        C  0.31330893  0.16702608  0.05251073    -0.10490
C672        C  0.33664278  0.15441408  0.10134774    -0.12050
C673        C  0.25077572  0.26539865  0.10507838    -0.10490
C674        C  0.27485280  0.24853804  0.05770933    -0.12050
C675        C  0.30248502  0.17764259  0.88924203    -0.10490
C676        C  0.32149805  0.16385846  0.83717293    -0.12050
C677        C  0.62739862  0.65497202  0.66833927    -0.10490
C678        C  0.57785790  0.67445937  0.67614371    -0.12050
C679        C  0.75460353  0.56501622  0.72263646    -0.10490
C680        C  0.72782845  0.60733456  0.70346005    -0.12050
C681        C  0.73518949  0.66844996  0.54822454    -0.10490
C682        C  0.71450794  0.65621314  0.59865710    -0.12050
C683        C  0.45906186  0.28923806  0.67643341    -0.10490
C684        C  0.41535343  0.31334136  0.65719076    -0.12050
C685        C  0.29894915  0.41685478  0.70451211    -0.10490
C686        C  0.32409985  0.37528195  0.68023198    -0.12050
C687        C  0.32289413  0.28763935  0.61122140    -0.10490
C688        C  0.30494460  0.25997504  0.56744163    -0.12050
C689        C  0.72019996  0.32958477  0.27873004    -0.10490
C690        C  0.72326180  0.37325124  0.24743805    -0.12050
C691        C  0.73330961  0.24672035  0.36861248    -0.10490
C692        C  0.74774072  0.22165471  0.41524341    -0.12050
C693        C  0.64989456  0.28580330  0.33345292    -0.10490
C694        C  0.60736329  0.25965408  0.30951428    -0.12050
C695        C  0.39908700  0.63114899  0.27478900    -0.10490
C696        C  0.44483789  0.64827302  0.25282362    -0.12050
C697        C  0.29906331  0.65258003  0.32911367    -0.10490
C698        C  0.27236633  0.67723638  0.37130051    -0.12050
C699        C  0.32658141  0.55675842  0.29013014    -0.10490
C700        C  0.30376623  0.51165058  0.27520164    -0.12050
C701        C  0.74610293  0.64744822  0.38525993    -0.10490
C702        C  0.72013992  0.63085217  0.33792453    -0.12050
C703        C  0.63114787  0.63462791  0.25272485    -0.10490
C704        C  0.58537149  0.65223112  0.23360345    -0.12050
C705        C  0.67535405  0.55160288  0.28839561    -0.10490
C706        C  0.70320281  0.51229253  0.26153841    -0.12050
C707        C  0.29222078  0.37267612  0.25821581    -0.10490
C708        C  0.32031373  0.33237856  0.27832498    -0.12050
C709        C  0.33891923  0.29313175  0.37882213    -0.10490
C710        C  0.31372306  0.26533263  0.42037207    -0.12050
C711        C  0.41647242  0.26914812  0.30666209    -0.10490
C712        C  0.46371546  0.24507666  0.29864843    -0.12050
C713        C  0.75952079  0.40473206  0.69249341    -0.10490
C714        C  0.73543258  0.35925420  0.66877227    -0.12050
C715        C  0.65515793  0.29168280  0.69507969    -0.10490
C716        C  0.60381479  0.27974210  0.70871829    -0.12050
C717        C  0.77444158  0.23571329  0.57658348    -0.10490
C718        C  0.75246614  0.26088478  0.62265684    -0.12050
C719        C  0.64361906  0.47894629  0.67213326    -0.10570
C720        C  0.68327984  0.45512215  0.63224060     0.11580
C721        C  0.73053545  0.48650511  0.61170519    -0.10570
C722        C  0.72082494  0.54154151  0.60094704    -0.10570
C723        C  0.67484533  0.56887889  0.63265582     0.11580
C724        C  0.63751757  0.53636772  0.67023715    -0.10570
H725        H  0.61307724  0.45291849  0.69681349     0.15570
H726        H  0.76472084  0.46629724  0.58611935     0.15570
H727        H  0.75438526  0.56348909  0.57619887     0.15570
H728        H  0.60900945  0.55618279  0.70293255     0.15570
C729        C  0.31434341  0.40291411  0.55790334    -0.10570
C730        C  0.35957141  0.36678361  0.57468514     0.11580
C731        C  0.39154876  0.34275006  0.52620549    -0.10570
C732        C  0.38767797  0.36370175  0.46852686    -0.10570
C733        C  0.36125059  0.41624677  0.46244268     0.11580
C734        C  0.31458375  0.42668811  0.50083104    -0.10570
H735        H  0.27978745  0.41441937  0.58853432     0.15570
H736        H  0.41614212  0.30569640  0.53301413     0.15570
H737        H  0.41898314  0.34907971  0.43520583     0.15570
H738        H  0.28576802  0.46050771  0.49220733     0.15570
C739        C  0.78819593  0.39014203  0.47378442    -0.10570
C740        C  0.78144519  0.43969120  0.44198314     0.11580
C741        C  0.80846673  0.43557155  0.38578815    -0.10570
C742        C  0.79497681  0.38613064  0.35175147    -0.10570
C743        C  0.75993694  0.34181633  0.37815964     0.11580
C744        C  0.77336004  0.33948301  0.44197639    -0.10570
H745        H  0.78993842  0.39102846  0.52275701     0.15570
H746        H  0.82543360  0.47290098  0.36365739     0.15570
H747        H  0.80616703  0.38806952  0.30556451     0.15570
H748        H  0.76526856  0.30492207  0.47060390     0.15570
C749        C  0.39449790  0.67104262  0.46151130    -0.10570
C750        C  0.38672316  0.62258109  0.49498463     0.11580
C751        C  0.34886526  0.58007135  0.47422313    -0.10570
C752        C  0.34313193  0.57162257  0.41357427    -0.10570
C753        C  0.36904095  0.61098441  0.37438807     0.11580
C754        C  0.39330887  0.66282429  0.39950105    -0.10570
H755        H  0.41575541  0.70857179  0.48068324     0.15570
H756        H  0.32983278  0.54913386  0.50285172     0.15570
H757        H  0.31636175  0.53619589  0.39849495     0.15570
H758        H  0.40650203  0.69783346  0.37133374     0.15570
C759        C  0.55144858  0.67263581  0.42574073    -0.10570
C760        C  0.59326914  0.70001059  0.46071911     0.11580
C761        C  0.63083259  0.73184057  0.42488097    -0.10570
C762        C  0.64391000  0.70972602  0.36657910    -0.10570
C763        C  0.62502874  0.65233909  0.35113728     0.11580
C764        C  0.56976593  0.64085840  0.37386894    -0.10570
H765        H  0.50757183  0.67708204  0.43871676     0.15570
H766        H  0.65690385  0.76584004  0.44456706     0.15570
H767        H  0.67672051  0.73097970  0.33995330     0.15570
H768        H  0.54033865  0.61597257  0.34825868     0.15570
C769        C  0.41567523  0.47234101  0.30184617    -0.10570
C770        C  0.45297302  0.46835165  0.25144123     0.11580
C771        C  0.44855420  0.41835114  0.21681094    -0.10570
C772        C  0.43572952  0.36951205  0.24875642    -0.10570
C773        C  0.40458618  0.36933864  0.30564462     0.11580
C774        C  0.38709651  0.42390275  0.32417610    -0.10570
H775        H  0.41431680  0.51119918  0.32881521     0.15570
H776        H  0.47400602  0.41372766  0.17538868     0.15570
H777        H  0.45114658  0.33216112  0.22751900     0.15570
H778        H  0.35136661  0.42930385  0.35479257     0.15570
C779        C  0.64743082  0.26594738  0.48880310    -0.10570
C780        C  0.60763216  0.22183956  0.49844042     0.11580
C781        C  0.61065099  0.19421717  0.55264620    -0.10570
C782        C  0.64222591  0.21982802  0.59881908    -0.10570
C783        C  0.66680421  0.27705613  0.59498782     0.11580
C784        C  0.67211391  0.29658942  0.53679506    -0.10570
H785        H  0.65192523  0.28108799  0.44450907     0.15570
H786        H  0.58400151  0.15716667  0.56160359     0.15570
H787        H  0.64708902  0.19534465  0.63889032     0.15570
H788        H  0.69845489  0.33326754  0.52961717     0.15570
C789        C  0.37856805  0.68344630  0.63959012    -0.10490
C790        C  0.42815671  0.69970976  0.65442730    -0.12050
C791        C  0.30207840  0.64935862  0.57027342    -0.10490
C792        C  0.27855972  0.66913705  0.52451938    -0.12050
C793        C  0.28408215  0.60833443  0.66754894    -0.10490
C794        C  0.26858135  0.56247550  0.69173731    -0.12050
C795        C  0.40839834  0.55145363  0.74679979    -0.10570
C796        C  0.41005411  0.49847349  0.71839805     0.11580
C797        C  0.38505823  0.49170530  0.66171253    -0.10570
C798        C  0.36917315  0.53573558  0.62713359    -0.10570
C799        C  0.37296994  0.59046012  0.65071391     0.11580
C800        C  0.39147535  0.59648745  0.71358404    -0.10570
H801        H  0.42606746  0.55898350  0.79137843     0.15570
H802        H  0.38259395  0.45095076  0.64185202     0.15570
H803        H  0.34477081  0.52567379  0.58806079     0.15570
H804        H  0.38586355  0.63542672  0.73982527     0.15570
loop_ 
_geom_bond_atom_site_label_1 
_geom_bond_atom_site_label_2 
_geom_bond_distance 
_geom_bond_site_symmetry_2 
_ccdc_geom_bond_type 
C1          C789   1.548       .  S
C1          C791   1.557       .  S
C1          C793   1.535       .  S
C1          C799   1.541       .  S
C2           N20   1.350       .  A
C2           C39   1.443       .  S
C2          C796   1.466       .  S
N3           N20   1.324       .  A
N3           N25   1.298       .  A
N3          Co40   2.035       .  S
C4           N29   1.296       .  A
C4           C42   1.470       .  S
C4           H49   1.018       .  S
H5           C46   1.072       .  S
C6           N30   1.316       .  A
C6           C10   1.465       .  S
C6           H35   1.083       .  S
Co7          N25   1.996       .  S
Co7          N15   1.999       .  S
Co7          N47   2.144       .  S
Co7          N23   1.965       .  S
Co7         Cl51   2.664       .  S
N8           C46   1.278       .  A
N8           N15   1.326       .  A
N8           Co9   1.983       .  S
Co9          N12   2.062       .  S
Co9          N29   2.037       .  S
Co9          N16   1.951       .  S
Co9         Cl51   2.472       .  S
C10          N48   1.355       .  A
C10         C770   1.483       .  S
N11          N18   1.313       .  A
N11          N41   1.321       .  A
N11         Co44   2.088       .  S
N12          N30   1.292       .  A
N12          N48   1.322       .  A
N13          C42   1.339       .  A
N13          N23   1.326       .  A
H14          C39   1.080       .  S
N15          N36   1.308       .  A
N16          N34   1.324       .  A
N16          N21   1.326       .  A
C17          N21   1.330       .  A
C17          C45   1.468       .  S
C17         C740   1.478       .  S
N18          C33   1.343       .  A
N18         Co40   2.074       .  S
C19          N47   1.334       .  A
C19          C22   1.414       .  S
C19          H53   1.055       .  S
C22          N43   1.329       .  A
C22         C720   1.411       .  S
N23          N29   1.278       .  A
N24          C50   1.333       .  A
N24          N26   1.308       .  A
N24         Co40   2.031       .  S
N25          C39   1.328       .  A
N26          N54   1.320       .  A
N26         Co44   2.040       .  S
H27          C50   1.082       .  S
H28          C45   1.037       .  S
N30         Co44   1.982       .  S
N31          N43   1.307       .  A
N31          N47   1.316       .  A
N31         Co40   1.940       .  S
C32          N36   1.326       .  A
C32          C46   1.428       .  S
C32         C750   1.374       .  S
C33          C52   1.432       .  S
C33          H37   1.019       .  S
N34          C45   1.289       .  A
N34         Co44   2.135       .  S
C38          N54   1.348       .  A
C38          C50   1.456       .  S
C38         C780   1.478       .  S
Co40        Cl51   2.621       .  S
N41          C52   1.343       .  A
C42         C760   1.484       .  S
Co44        Cl51   2.586       .  S
C52         C733   1.476       .  S
C55         C714   1.615       .  S
C55         C715   1.552       .  S
C55         C718   1.550       .  S
C55         C783   1.568       .  S
C56         C708   1.549       .  S
C56         C709   1.573       .  S
C56         C711   1.564       .  S
C56         C773   1.564       .  S
C57         C702   1.552       .  S
C57         C703   1.510       .  S
C57         C705   1.563       .  S
C57         C763   1.580       .  S
C58         C695   1.511       .  S
C58         C697   1.520       .  S
C58         C699   1.485       .  S
C58         C753   1.462       .  S
C59         C689   1.532       .  S
C59         C691   1.516       .  S
C59         C693   1.577       .  S
C59         C743   1.634       .  S
C60         C684   1.581       .  S
C60         C686   1.546       .  S
C60         C687   1.468       .  S
C60         C730   1.527       .  S
C61         C677   1.571       .  S
C61         C680   1.576       .  S
C61         C682   1.530       .  S
C61         C723   1.464       .  S
C62          C63   1.471   1_554  D
C62         C671   1.517       .  S
C62         C674   1.457       .  S
C63         C669   1.505       .  S
C63         C675   1.510       .  S
C64          C65   1.456   1_565  D
C64         C661   1.473       .  S
C64         C667   1.522       .  S
C65         C664   1.490       .  S
C65         C666   1.539       .  S
C66          C67   1.459       .  D
C66         C656   1.462   1_455  S
C66         C657   1.517   1_455  S
C67         C654   1.493       .  S
C67         C660   1.512       .  S
C68          C69   1.505       .  D
C68         C651   1.544       .  S
C68         C712   1.520       .  S
C69         C650   1.567       .  S
C69         C694   1.548       .  S
C70          C71   1.483       .  D
C70         C647   1.543       .  S
C70         C710   1.542       .  S
C71         C645   1.536       .  S
C71         C688   1.440       .  S
C72          C73   1.441       .  D
C72         C643   1.512       .  S
C72         C700   1.432       .  S
C73         C641   1.461       .  S
C73         C707   1.527       .  S
C74          C75   1.482   1_554  D
C74         C634   1.544       .  S
C74         C637   1.543       .  S
C75         C635   1.529       .  S
C75         C639   1.536       .  S
C76          C77   1.550   1_556  D
C76         C628   1.607       .  S
C76         C631   1.490       .  S
C77         C625   1.593       .  S
C77         C629   1.557       .  S
C78          C79   1.477       .  D
C78         C620   1.509   1_455  S
C78         C621   1.539   1_455  S
C79         C617   1.510       .  S
C79         C624   1.501       .  S
C80          C81   1.474       .  D
C80         C615   1.513       .  S
C80         C690   1.508       .  S
C81         C614   1.552       .  S
C81         C706   1.543       .  S
C82          C83   1.460       .  D
C82         C610   1.477       .  S
C82         C794   1.499       .  S
C83         C612   1.485       .  S
C83         C685   1.505       .  S
C84         C593   1.531       .  S
C84         C595   1.575       .  S
C84         C598   1.578       .  S
C84         C600   1.638       .  S
C85         N103   1.346       .  A
C85         C122   1.472   1_556  S
C85         C554   1.498       .  S
N86         N103   1.319       .  A
N86         N108   1.316   1_556  A
N86        Co123   2.061       .  S
C87         N112   1.310       .  A
C87         C125   1.483       .  S
C87         H132   1.056       .  S
H88         C129   1.075       .  S
C89         N113   1.343       .  A
C89          C93   1.446       .  S
C89         H118   1.069   1_554  S
Co90        N108   2.062       .  S
Co90         N98   2.057       .  S
Co90        N130   1.997   1_554  S
Co90        N106   1.998   1_655  S
Co90       Cl134   2.465   1_654  S
N91         C129   1.349       .  A
N91          N98   1.321   1_455  A
N91         Co92   2.097       .  S
Co92         N95   2.052       .  S
Co92        N112   2.003       .  S
Co92         N99   2.126   1_554  S
Co92       Cl134   2.327   1_554  S
C93         N131   1.323       .  A
C93         C544   1.468       .  S
N94         N101   1.311   1_455  A
N94         N124   1.321       .  A
N94        Co127   1.951       .  S
N95         N113   1.304       .  A
N95         N131   1.285       .  A
N96         C125   1.325   1_655  A
N96         N106   1.316   1_655  A
H97         C122   1.079       .  S
N98         N119   1.315       .  A
N99         N117   1.312       .  A
N99         N104   1.311       .  A
C100        N104   1.332       .  A
C100        C128   1.474       .  S
C100        C534   1.484   1_556  S
N101        C116   1.288       .  A
N101       Co123   2.082       .  S
C102        N130   1.337       .  A
C102        C105   1.389       .  S
C102        H136   1.064       .  S
C105        N126   1.335       .  A
C105        C574   1.422   1_655  S
N106        N112   1.291       .  A
N107        C133   1.347       .  A
N107        N109   1.288   1_655  A
N107       Co123   2.043       .  S
N108        C122   1.336       .  A
N109        N137   1.310       .  A
N109       Co127   2.050       .  S
H110        C133   1.080       .  S
H111        C128   1.076       .  S
N113       Co127   1.979   1_554  S
N114        N126   1.306       .  A
N114        N130   1.310       .  A
N114       Co123   2.004       .  S
C115        N119   1.351       .  A
C115        C129   1.457   1_655  S
C115        C584   1.468       .  S
C116        C135   1.494       .  S
C116        H120   1.073       .  S
N117        C128   1.350       .  A
N117       Co127   2.093       .  S
C121        N137   1.343       .  A
C121        C133   1.467   1_455  S
C121        C564   1.495       .  S
Co123      Cl134   2.320   1_655  S
N124        C135   1.328   1_455  A
C125        C524   1.478       .  S
Co127      Cl134   2.550       .  S
C135        C603   1.497       .  S
C138        C616   1.557       .  S
C138        C630   1.581       .  S
C138        C658   1.541       .  S
C138        C587   1.594       .  S
C139        C611   1.541       .  S
C139        C623   1.539       .  S
C139        C670   1.545       .  S
C139        C577   1.485       .  S
C140        C521   1.557       .  S
C140        C609   1.497       .  S
C140        C636   1.555       .  S
C140        C567   1.581       .  S
C141        C520   1.480       .  S
C141        C622   1.592       .  S
C141        C632   1.465       .  S
C141        C557   1.668       .  S
C142        C515   1.577       .  S
C142        C518   1.633       .  S
C142        C613   1.598       .  S
C142        C547   1.506       .  S
C143        C144   1.515       .  D
C143        C519   1.462       .  S
C143        C713   1.590       .  S
C144        C597   1.542       .  S
C144        C679   1.538       .  S
C145        C513   1.684       .  S
C145        C633   1.587       .  S
C145        C644   1.541       .  S
C145        C537   1.600       .  S
C146        C642   1.500       .  S
C146        C653   1.535       .  S
C146        C673   1.482       .  S
C146        C527   1.488       .  S
C147        C148   1.464       .  D
C147        C508   1.539   1_565  S
C147        C510   1.496   1_565  S
C148        C506   1.495       .  S
C148        C512   1.526       .  S
C149        C150   1.463       .  D
C149        C503   1.499       .  S
C149        C704   1.484       .  S
C150        C501   1.516       .  S
C150        C696   1.465       .  S
C151        C152   1.503       .  D
C151        C500   1.550       .  S
C151        C716   1.512       .  S
C152        C498   1.522       .  S
C152        C683   1.533       .  S
C153        C485   1.621       .  S
C153        C499   1.603       .  S
C153        C627   1.620       .  S
C153        C488   1.493       .  S
C154        N172   1.335       .  A
C154        C191   1.381       .  S
C154        C456   1.497       .  S
N155        N172   1.319   1_554  A
N155        N177   1.282       .  A
N155       Co192   2.136   1_554  S
C156        N181   1.314       .  A
C156        C194   1.421       .  S
C156        H201   1.055       .  S
H157        C198   1.052       .  S
C158        N182   1.344       .  A
C158        C162   1.469   1_556  S
C158        H187   1.080   1_565  S
Co159       N177   2.323       .  S
Co159       N167   1.986       .  S
Co159       N199   2.081   1_544  S
Co159       N175   2.083   1_545  S
Co159      Cl203   2.636   1_554  S
N160        C198   1.360       .  A
N160        N167   1.309       .  A
N160       Co161   2.236       .  S
Co161       N164   2.185   1_545  S
Co161       N181   1.979   1_545  S
Co161       N168   2.196   1_544  S
Co161      Cl203   2.319   1_554  S
C162        N200   1.312       .  A
C162        C416   1.465   1_565  S
N163        N170   1.286       .  A
N163        N193   1.310       .  A
N163       Co196   1.960   1_545  S
N164        N182   1.308   1_554  A
N164        N200   1.313       .  A
N165        C194   1.348       .  A
N165        N175   1.302       .  A
H166        C191   1.057       .  S
N167        N188   1.300       .  A
N168        N186   1.324       .  A
N168        N173   1.337   1_556  A
C169        N173   1.340   1_556  A
C169        C197   1.413       .  S
C169        C476   1.424       .  S
N170        C185   1.348       .  A
N170       Co192   2.235       .  S
C171        N199   1.315   1_554  A
C171        C174   1.439   1_554  S
C171        H205   1.058       .  S
C174        N195   1.370       .  A
C174        C466   1.500       .  S
N175        N181   1.324       .  A
N176        C202   1.332       .  A
N176        N178   1.313       .  A
N176       Co192   2.039       .  S
N177        C191   1.340   1_554  A
N178        N206   1.318   1_545  A
N178       Co196   2.072   1_545  S
H179        C202   1.082   1_565  S
H180        C197   1.065       .  S
N182       Co196   2.037       .  S
N183        N195   1.311       .  A
N183        N199   1.310       .  A
N183       Co192   2.145   1_565  S
C184        N188   1.338       .  A
C184        C198   1.445       .  S
C184        C426   1.519       .  S
C185        C204   1.456   1_556  S
C185        H189   1.045       .  S
N186        C197   1.314       .  A
N186       Co196   1.978       .  S
C190        N206   1.354       .  A
C190        C202   1.452   1_565  S
C190        C446   1.465       .  S
Co192      Cl203   2.244       .  S
N193        C204   1.320   1_556  A
C194        C436   1.427       .  S
Co196      Cl203   2.629   1_565  S
C204        C491   1.455   1_554  S
C207        C411   1.547       .  S
C207        C413   1.608       .  S
C207        C504   1.534       .  S
C207        C479   1.505       .  S
C208        C410   1.549       .  S
C208        C511   1.568       .  S
C208        C640   1.568       .  S
C208        C469   1.520       .  S
C209        C497   1.559       .  S
C209        C509   1.536       .  S
C209        C676   1.554       .  S
C209        C459   1.456       .  S
C210        C403   1.568       .  S
C210        C405   1.612       .  S
C210        C407   1.540       .  S
C210        C449   1.579       .  S
C211        C502   1.554       .  S
C211        C638   1.577       .  S
C211        C662   1.514       .  S
C211        C439   1.509       .  S
C212        C213   1.493       .  D
C212        C409   1.517       .  S
C212        C790   1.504       .  S
C213        C408   1.508       .  S
C213        C678   1.517       .  S
C214        C652   1.598       .  S
C214        C665   1.572       .  S
C214        C672   1.552       .  S
C214        C429   1.624       .  S
C215        C402   1.604       .  S
C215        C626   1.637       .  S
C215        C649   1.615       .  S
C215        C419   1.524       .  S
C216        C217   1.525   1_655  D
C216        C400   1.522       .  S
C216        C517   1.588       .  S
C217        C397   1.579       .  S
C217        C514   1.633       .  S
C218        C219   1.491   1_565  D
C218        C393   1.486       .  S
C218        C414   1.549       .  S
C219        C395   1.472       .  S
C219        C401   1.563       .  S
C220        C221   1.471       .  D
C220        C391   1.504       .  S
C220        C717   1.517       .  S
C221        C390   1.452       .  S
C221        C692   1.508       .  S
C222        C223   1.486       .  D
C222        C387   1.496       .  S
C222        C792   1.517       .  S
C223        C386   1.534       .  S
C223        C698   1.486       .  S
C224        C389   1.484       .  S
C224        C396   1.514       .  S
C224        C655   1.507       .  S
C224        C376   1.461       .  S
C225        N243   1.361       .  A
C225        C262   1.367   1_545  S
C225        C379   1.452       .  S
N226        N243   1.336   1_465  A
N226        N248   1.319       .  A
N226       Co263   2.159   1_455  S
C227        N252   1.326       .  A
C227        C265   1.470       .  S
C227        H272   1.054       .  S
H228        C269   1.070       .  S
C229        N253   1.317       .  A
C229        C233   1.409       .  S
C229        H258   1.068       .  S
Co230       N248   2.047   1_655  S
Co230       N238   2.112   1_655  S
Co230       N270   1.997       .  S
Co230       N246   2.099   1_655  S
Co230      Cl274   2.493   1_655  S
N231        C269   1.322       .  A
N231        N238   1.291       .  A
N231       Co232   1.971       .  S
Co232       N235   2.136   1_565  S
Co232       N252   2.015       .  S
Co232       N239   1.965       .  S
Co232      Cl274   2.420       .  S
C233        N271   1.350       .  A
C233        C306   1.416       .  S
N234        N241   1.293       .  A
N234        N264   1.305       .  A
N234       Co267   2.118   1_545  S
N235        N253   1.318       .  A
N235        N271   1.296       .  A
N236        C265   1.340       .  A
N236        N246   1.313       .  A
H237        C262   1.067       .  S
N238        N259   1.324       .  A
N239        N257   1.287       .  A
N239        N244   1.315       .  A
C240        N244   1.333       .  A
C240        C268   1.481       .  S
C240        C346   1.479       .  S
N241        C256   1.340       .  A
N241       Co263   1.984   1_445  S
C242        N270   1.356       .  A
C242        C245   1.514       .  S
C242        H276   1.108       .  S
C245        N266   1.336       .  A
C245        C366   1.507       .  S
N246        N252   1.298       .  A
N247        C273   1.354       .  A
N247        N249   1.323       .  A
N247       Co263   2.081   1_455  S
N248        C262   1.355   1_455  A
N249        N277   1.309       .  A
N249       Co267   2.107       .  S
H250        C273   1.081   1_655  S
H251        C268   1.079   1_545  S
N253       Co267   1.911   1_545  S
N254        N266   1.317       .  A
N254        N270   1.310       .  A
N254       Co263   1.953       .  S
C255        N259   1.344       .  A
C255        C269   1.417       .  S
C255        C339   1.430   1_565  S
C256        C275   1.464       .  S
C256        H260   1.081   1_455  S
N257        C268   1.362       .  A
N257       Co267   2.090       .  S
C261        N277   1.351       .  A
C261        C273   1.468       .  S
C261        C356   1.497       .  S
Co263      Cl274   2.531   1_655  S
N264        C275   1.345       .  A
C265        C326   1.472       .  S
Co267      Cl274   2.425       .  S
C275        C319   1.481       .  S
C278        C304   1.471       .  S
C278        C394   1.517       .  S
C278        C399   1.562       .  S
C278        C369   1.563       .  S
C279        C385   1.574       .  S
C279        C398   1.618       .  S
C279        C668   1.570       .  S
C279        C359   1.607       .  S
C280        C301   1.603       .  S
C280        C388   1.533       .  S
C280        C505   1.519       .  S
C280        C349   1.584       .  S
C281        C299   1.527       .  S
C281        C392   1.547       .  S
C281        C619   1.539       .  S
C281        C336   1.498       .  S
C282        C293   1.531       .  S
C282        C295   1.613       .  S
C282        C297   1.558       .  S
C282        C329   1.552       .  S
C283        C284   1.481       .  D
C283        C303   1.460       .  S
C283        C701   1.515       .  S
C284        C298   1.518       .  S
C284        C681   1.480       .  S
C285        C648   1.582       .  S
C285        C659   1.568       .  S
C285        C663   1.534       .  S
C285        C316   1.609       .  S
C286        C507   1.586       .  S
C286        C618   1.559       .  S
C286        C646   1.573       .  S
C286        C309   1.499       .  S
C287        C288   1.491   1_455  D
C287        C302   1.572       .  S
C287        C522   1.524       .  S
C288        C294   1.498       .  S
C288        C596   1.524       .  S
C289        C290   1.502       .  D
C289        C296   1.568       .  S
C289        C404   1.531       .  S
C290        C300   1.489   1_565  S
C290        C486   1.565   1_565  S
C291        C292   1.517   1_556  D
C291        C406   1.577       .  S
C291        C594   1.507       .  S
C292        C412   1.505       .  S
C292        C516   1.536       .  S
C293        C294   1.262       .  T
C295        C296   1.287       .  T
C297        C298   1.264       .  T
C299        C300   1.246       .  T
C301        C302   1.291       .  T
C303        C304   1.230       .  T
C305        H311   1.082       .  S
C305        C306   1.411       .  A
C305        C310   1.391       .  A
C306        C307   1.365       .  A
C307        H312   1.084       .  S
C307        C308   1.370       .  A
C308        H313   1.072       .  S
C308        C309   1.444       .  A
C309        C310   1.419       .  A
C310        H314   1.081       .  S
C315        H321   1.073       .  S
C315        C316   1.438       .  A
C315        C320   1.415       .  A
C316        C317   1.430       .  A
C317        H322   1.074       .  S
C317        C318   1.415       .  A
C318        H323   1.073       .  S
C318        C319   1.388       .  A
C319        C320   1.398       .  A
C320        H324   1.064   1_545  S
C325        H331   1.069       .  S
C325        C326   1.396       .  A
C325        C330   1.394   1_455  A
C326        C327   1.388   1_455  A
C327        H332   1.084       .  S
C327        C328   1.389       .  A
C328        H333   1.076       .  S
C328        C329   1.445       .  A
C329        C330   1.388       .  A
C330        H334   1.079       .  S
C335        H341   1.081       .  S
C335        C336   1.384       .  A
C335        C340   1.366   1_655  A
C336        C337   1.433       .  A
C337        H342   1.081       .  S
C337        C338   1.375       .  A
C338        H343   1.084   1_545  S
C338        C339   1.378   1_655  A
C339        C340   1.401       .  A
C340        H344   1.064       .  S
C345        H351   1.065       .  S
C345        C346   1.404       .  A
C345        C350   1.419       .  A
C346        C347   1.392       .  A
C347        H352   1.083       .  S
C347        C348   1.398       .  A
C348        H353   1.083       .  S
C348        C349   1.446       .  A
C349        C350   1.378       .  A
C350        H354   1.071       .  S
C355        H361   1.072       .  S
C355        C356   1.396       .  A
C355        C360   1.428       .  A
C356        C357   1.389       .  A
C357        H362   1.085       .  S
C357        C358   1.407       .  A
C358        H363   1.047       .  S
C358        C359   1.456       .  A
C359        C360   1.363       .  A
C360        H364   1.043       .  S
C365        H371   1.081       .  S
C365        C366   1.406       .  A
C365        C370   1.411       .  A
C366        C367   1.371       .  A
C367        H372   1.043       .  S
C367        C368   1.409       .  A
C368        H373   1.080       .  S
C368        C369   1.427       .  A
C369        C370   1.443       .  A
C370        H374   1.077       .  S
C375        H381   1.082       .  S
C375        C376   1.444       .  A
C375        C380   1.373       .  A
C376        C377   1.428       .  A
C377        H382   1.080       .  S
C377        C378   1.381       .  A
C378        H383   1.083       .  S
C378        C379   1.399       .  A
C379        C380   1.375       .  A
C380        H384   1.079       .  S
C385        C386   1.274       .  T
C387        C388   1.257       .  T
C389        C390   1.237       .  T
C391        C392   1.252       .  T
C393        C394   1.240       .  T
C395        C396   1.232       .  T
C397        C398   1.292       .  T
C399        C400   1.261       .  T
C401        C402   1.296       .  T
C403        C404   1.270       .  T
C405        C406   1.295       .  T
C407        C408   1.265       .  T
C409        C410   1.266       .  T
C411        C412   1.267       .  T
C413        C414   1.284       .  T
C415        H421   1.083       .  S
C415        C416   1.364       .  A
C415        C420   1.370       .  A
C416        C417   1.432       .  A
C417        H422   1.075   1_545  S
C417        C418   1.360       .  A
C418        H423   1.079       .  S
C418        C419   1.387       .  A
C419        C420   1.466       .  A
C420        H424   1.083       .  S
C425        H431   1.076       .  S
C425        C426   1.395       .  A
C425        C430   1.415       .  A
C426        C427   1.415       .  A
C427        H432   1.080       .  S
C427        C428   1.431       .  A
C428        H433   1.070       .  S
C428        C429   1.414       .  A
C429        C430   1.422       .  A
C430        H434   1.077       .  S
C435        H441   1.053       .  S
C435        C436   1.406       .  A
C435        C440   1.362       .  A
C436        C437   1.364       .  A
C437        H442   1.084       .  S
C437        C438   1.378       .  A
C438        H443   1.083       .  S
C438        C439   1.473       .  A
C439        C440   1.382       .  A
C440        H444   1.063       .  S
C445        H451   1.083       .  S
C445        C446   1.388       .  A
C445        C450   1.394       .  A
C446        C447   1.401       .  A
C447        H452   1.083       .  S
C447        C448   1.395       .  A
C448        H453   1.043       .  S
C448        C449   1.398       .  A
C449        C450   1.452       .  A
C450        H454   1.082       .  S
C455        H461   1.074       .  S
C455        C456   1.383       .  A
C455        C460   1.367       .  A
C456        C457   1.386       .  A
C457        H462   1.074       .  S
C457        C458   1.384       .  A
C458        H463   1.077       .  S
C458        C459   1.412       .  A
C459        C460   1.446       .  A
C460        H464   1.084       .  S
C465        H471   1.076       .  S
C465        C466   1.388       .  A
C465        C470   1.379       .  A
C466        C467   1.382       .  A
C467        H472   1.081   1_556  S
C467        C468   1.380       .  A
C468        H473   1.075       .  S
C468        C469   1.441       .  A
C469        C470   1.423       .  A
C470        H474   1.063       .  S
C475        H481   1.082       .  S
C475        C476   1.378       .  A
C475        C480   1.369   1_556  A
C476        C477   1.381   1_556  A
C477        H482   1.079   1_554  S
C477        C478   1.374       .  A
C478        H483   1.081       .  S
C478        C479   1.440       .  A
C479        C480   1.387       .  A
C480        H484   1.072       .  S
C485        C486   1.290       .  T
C487        H493   1.080       .  S
C487        C488   1.453       .  A
C487        C492   1.397       .  A
C488        C489   1.438       .  A
C489        H494   1.078       .  S
C489        C490   1.405       .  A
C490        H495   1.070       .  S
C490        C491   1.406       .  A
C491        C492   1.387       .  A
C492        H496   1.083       .  S
C497        C498   1.271       .  T
C499        C500   1.283       .  T
C501        C502   1.268       .  T
C503        C504   1.249       .  T
C505        C506   1.247       .  T
C507        C508   1.270       .  T
C509        C510   1.245       .  T
C511        C512   1.264       .  T
C513        C514   1.328       .  T
C515        C516   1.276       .  T
C517        C518   1.304       .  T
C519        C520   1.230       .  T
C521        C522   1.262       .  T
C523        H529   1.063       .  S
C523        C524   1.418   1_556  A
C523        C528   1.388   1_556  A
C524        C525   1.391       .  A
C525        H530   1.082       .  S
C525        C526   1.389       .  A
C526        H531   1.071       .  S
C526        C527   1.415       .  A
C527        C528   1.372       .  A
C528        H532   1.073       .  S
C533        H539   1.083       .  S
C533        C534   1.380       .  A
C533        C538   1.390       .  A
C534        C535   1.410       .  A
C535        H540   1.067       .  S
C535        C536   1.381       .  A
C536        H541   1.055       .  S
C536        C537   1.405       .  A
C537        C538   1.465       .  A
C538        H542   1.082       .  S
C543        H549   1.074       .  S
C543        C544   1.374   1_655  A
C543        C548   1.392       .  A
C544        C545   1.397   1_455  A
C545        H550   1.060   1_655  S
C545        C546   1.366       .  A
C546        H551   1.074       .  S
C546        C547   1.375       .  A
C547        C548   1.427       .  A
C548        H552   1.069       .  S
C553        H559   1.083       .  S
C553        C554   1.396       .  A
C553        C558   1.408       .  A
C554        C555   1.396       .  A
C555        H560   1.081   1_556  S
C555        C556   1.395       .  A
C556        H561   1.046       .  S
C556        C557   1.424       .  A
C557        C558   1.445       .  A
C558        H562   1.068       .  S
C563        H569   1.078       .  S
C563        C564   1.416       .  A
C563        C568   1.423       .  A
C564        C565   1.399       .  A
C565        H570   1.082       .  S
C565        C566   1.409       .  A
C566        H571   1.082       .  S
C566        C567   1.447       .  A
C567        C568   1.427       .  A
C568        H572   1.059       .  S
C573        H579   1.069       .  S
C573        C574   1.389       .  A
C573        C578   1.351       .  A
C574        C575   1.390       .  A
C575        H580   1.083       .  S
C575        C576   1.386       .  A
C576        H581   1.084       .  S
C576        C577   1.438       .  A
C577        C578   1.382       .  A
C578        H582   1.067       .  S
C583        H589   1.081       .  S
C583        C584   1.391       .  A
C583        C588   1.401       .  A
C584        C585   1.400   1_655  A
C585        H590   1.083       .  S
C585        C586   1.405   1_455  A
C586        H591   1.053   1_655  S
C586        C587   1.425       .  A
C587        C588   1.437       .  A
C588        H592   1.067       .  S
C593        C594   1.253       .  T
C595        C596   1.272       .  T
C597        C598   1.276       .  T
C599        H605   1.067       .  S
C599        C600   1.428       .  A
C599        C604   1.409       .  A
C600        C601   1.452       .  A
C601        H606   1.053       .  S
C601        C602   1.406       .  A
C602        H607   1.081   1_556  S
C602        C603   1.392       .  A
C603        C604   1.402       .  A
C604        H608   1.082       .  S
C609        C610   1.244       .  T
C611        C612   1.243       .  T
C613        C614   1.276       .  T
C615        C616   1.260       .  T
C617        C618   1.259       .  T
C619        C620   1.254       .  T
C621        C622   1.274       .  T
C623        C624   1.257       .  T
C625        C626   1.307       .  T
C627        C628   1.309       .  T
C629        C630   1.279       .  T
C631        C632   1.242       .  T
C633        C634   1.278       .  T
C635        C636   1.266       .  T
C637        C638   1.270       .  T
C639        C640   1.269       .  T
C641        C642   1.227       .  T
C643        C644   1.266       .  T
C645        C646   1.277       .  T
C647        C648   1.273       .  T
C649        C650   1.288       .  T
C651        C652   1.281       .  T
C653        C654   1.247       .  T
C655        C656   1.229       .  T
C657        C658   1.263       .  T
C659        C660   1.261       .  T
C661        C662   1.247       .  T
C663        C664   1.246       .  T
C665        C666   1.271       .  T
C667        C668   1.271       .  T
C669        C670   1.252       .  T
C671        C672   1.266       .  T
C673        C674   1.236       .  T
C675        C676   1.259       .  T
C677        C678   1.267       .  T
C679        C680   1.279       .  T
C681        C682   1.244       .  T
C683        C684   1.272       .  T
C685        C686   1.255       .  T
C687        C688   1.225       .  T
C689        C690   1.257       .  T
C691        C692   1.259       .  T
C693        C694   1.277       .  T
C695        C696   1.234       .  T
C697        C698   1.247       .  T
C699        C700   1.218       .  T
C701        C702   1.267       .  T
C703        C704   1.248       .  T
C705        C706   1.270       .  T
C707        C708   1.266       .  T
C709        C710   1.271       .  T
C711        C712   1.265       .  T
C713        C714   1.300       .  T
C715        C716   1.264       .  T
C717        C718   1.266       .  T
C719        H725   1.082       .  S
C719        C720   1.384       .  A
C719        C724   1.366       .  A
C720        C721   1.395       .  A
C721        H726   1.082       .  S
C721        C722   1.351       .  A
C722        H727   1.080       .  S
C722        C723   1.429       .  A
C723        C724   1.421       .  A
C724        H728   1.076       .  S
C729        H735   1.079       .  S
C729        C730   1.439       .  A
C729        C734   1.394       .  A
C730        C731   1.405       .  A
C731        H736   1.074       .  S
C731        C732   1.384       .  A
C732        H737   1.083       .  S
C732        C733   1.409       .  A
C733        C734   1.392       .  A
C734        H738   1.082       .  S
C739        H745   1.081       .  S
C739        C740   1.395       .  A
C739        C744   1.406       .  A
C740        C741   1.382       .  A
C741        H746   1.083       .  S
C741        C742   1.399       .  A
C742        H747   1.049       .  S
C742        C743   1.444       .  A
C743        C744   1.452       .  A
C744        H748   1.057       .  S
C749        H755   1.084       .  S
C749        C750   1.385       .  A
C749        C754   1.376       .  A
C750        C751   1.397       .  A
C751        H756   1.064       .  S
C751        C752   1.355       .  A
C752        H757   1.081       .  S
C752        C753   1.407       .  A
C753        C754   1.436       .  A
C754        H758   1.084       .  S
C759        H765   1.070       .  S
C759        C760   1.396       .  A
C759        C764   1.412       .  A
C760        C761   1.394       .  A
C761        H766   1.082       .  S
C761        C762   1.402       .  A
C762        H767   1.082       .  S
C762        C763   1.446       .  A
C763        C764   1.405       .  A
C764        H768   1.057       .  S
C769        H775   1.076       .  S
C769        C770   1.403       .  A
C769        C774   1.407       .  A
C770        C771   1.386       .  A
C771        H776   1.085       .  S
C771        C772   1.392       .  A
C772        H777   1.052       .  S
C772        C773   1.439       .  A
C773        C774   1.404       .  A
C774        H778   1.073       .  S
C779        H785   1.053       .  S
C779        C780   1.400       .  A
C779        C784   1.391       .  A
C780        C781   1.383       .  A
C781        H786   1.083       .  S
C781        C782   1.387       .  A
C782        H787   1.080       .  S
C782        C783   1.458       .  A
C783        C784   1.379       .  A
C784        H788   1.065       .  S
C789        C790   1.264       .  T
C791        C792   1.267       .  T
C793        C794   1.263       .  T
C795        H801   1.083       .  S
C795        C796   1.380       .  A
C795        C800   1.379       .  A
C796        C797   1.396       .  A
C797        H802   1.043       .  S
C797        C798   1.370       .  A
C798        H803   1.063       .  S
C798        C799   1.376       .  A
C799        C800   1.464       .  A
C800        H804   1.078       .  S
