geometry optimzed in LAMMPS
_audit_creation_date              2020-12-01 
_audit_creation_method            'lammps2cif' 
_symmetry_space_group_name_H-M    'P1' 
_symmetry_Int_Tables_number       1 
_symmetry_cell_setting            triclinic 
loop_ 
_symmetry_equiv_pos_as_xyz 
  x,y,z 
_cell_length_a                    68.52279907 
_cell_length_b                    68.657411112671 
_cell_length_c                    47.15329412141578 
_cell_angle_alpha                 90.27831618429737 
_cell_angle_beta                  90.081170226765 
_cell_angle_gamma                 127.12220762007163 
loop_ 
_atom_site_label 
_atom_site_type_symbol 
_atom_site_fract_x 
_atom_site_fract_y 
_atom_site_fract_z 
_atom_site_charge 
C1          C  0.54857556  0.87203606  0.99983712     0.80400
N2          N  0.54627874  0.88083371  0.47451400    -0.77900
C3          C  0.53559278  0.89221983  0.47454865     0.82900
N4          N  0.52775426  0.89526223  0.49929918    -0.77800
C5          C  0.52941833  0.88629787  0.02440677     0.83000
N6          N  0.54003506  0.87478160  0.02442497    -0.79500
C7          C  0.29824252  0.90995409  0.00017183     0.80400
N8          N  0.31144468  0.92025631  0.02448988    -0.77900
C9          C  0.33606180  0.93763065  0.02357696     0.82900
N10         N  0.34747739  0.94409369  0.49869639    -0.77800
C11         C  0.33464348  0.93378408  0.47431840     0.83000
N12         N  0.30996210  0.91674524  0.47535373    -0.79500
C13         C  0.53101915  0.98321456  0.31169212     0.42700
N14         N  0.51880333  0.99417817  0.27778814     0.01500
C15         C  0.58949299  0.09497758  0.19164362    -0.06300
H16         H  0.60330708  0.11578248  0.29876984     0.07000
C17         C  0.51271383  0.08224726  0.30460785    -0.06700
Co18       Co  0.56029505  0.03517473  0.24428101     0.74200
N19         N  0.58162592  0.08204470  0.27484117    -0.25900
Co20       Co  0.56034079  0.08559237  0.24704609     0.74100
C21         C  0.53586812  0.10379201  0.31590248     0.42800
N22         N  0.48047585  0.02070008  0.28416199     0.01200
N23         N  0.54315134  0.08928144  0.28057668     0.01300
N24         N  0.58935146  0.06193578  0.19113303    -0.46700
H25         H  0.57154377  0.01236478  0.30010208     0.07000
N26         N  0.58138160  0.06269515  0.27390521     0.01600
N27         N  0.53850090  0.08847114  0.21926527     0.01300
C28         C  0.52594030  0.10164633  0.18846429     0.42900
N29         N  0.48025233  0.00136285  0.28265797    -0.25300
C30         C  0.54585118  0.00044855  0.19317592    -0.06200
N31         N  0.51092753  0.97822260  0.29857589    -0.46400
N32         N  0.54613370  0.10535642  0.19964552    -0.46600
C33         C  0.52311398  0.97882752  0.18189972     0.42700
N34         N  0.57673707  0.06136274  0.21271630     0.01500
N35         N  0.47635722  0.00076386  0.22139295    -0.25300
N36         N  0.54288155  0.00902305  0.27599292    -0.25800
N37         N  0.47615437  0.01984971  0.22289102     0.01200
H38         H  0.45614673  0.96793854  0.19580270     0.07100
H39         H  0.48553669  0.07161520  0.20038326     0.07100
N40         N  0.57668081  0.08053949  0.21364922    -0.25900
N41         N  0.51910450  0.07468214  0.28278462    -0.25500
N42         N  0.51477387  0.99307156  0.21626341     0.01500
C43         C  0.60899439  0.08620368  0.30455709     0.42900
C44         C  0.46587027  0.98579758  0.30325083    -0.06700
N45         N  0.51447644  0.07383376  0.22167566    -0.25500
H46         H  0.49410607  0.07441549  0.31055227     0.07100
N47         N  0.59741460  0.06437613  0.29143332    -0.46700
H48         H  0.46105568  0.96778284  0.30636240     0.07100
C49         C  0.44989532  0.99715415  0.19056397     0.42800
C50         C  0.55227906  0.00344620  0.29648080    -0.06200
Co51       Co  0.49721012  0.99683063  0.24947189     0.73800
N52         N  0.46639718  0.01908480  0.30463757    -0.46400
C53         C  0.59753880  0.08235894  0.17653033     0.43000
N54         N  0.50453755  0.97521283  0.19717373    -0.46400
Co55       Co  0.49722459  0.04728995  0.25295105     0.73900
C56         C  0.50485005  0.08047886  0.20289595    -0.06700
C57         C  0.59835974  0.09788572  0.29399788    -0.06300
N58         N  0.53886200  0.00780539  0.21456045    -0.25800
N59         N  0.55384129  0.10695911  0.29982139    -0.46600
H60         H  0.59327388  0.11241080  0.18729902     0.07100
C61         C  0.46047907  0.98547368  0.20129101    -0.06700
Cl62       Cl  0.52875767  0.04122596  0.24842026    -0.49700
C63         C  0.45668041  0.99759858  0.31760256     0.42800
H64         H  0.56453344  0.00830513  0.18752229     0.07000
N65         N  0.46052387  0.01840399  0.20482666    -0.46400
C66         C  0.53725468  0.23075958  0.00003643     0.80400
N67         N  0.54044223  0.22269881  0.47605814    -0.77900
C68         C  0.54268520  0.20437065  0.47600850     0.82900
N69         N  0.54160932  0.19415810  0.00050592    -0.77800
C70         C  0.53847485  0.20201611  0.02524165     0.83000
N71         N  0.53588146  0.22009299  0.02493272    -0.79500
C72         C  0.75812695  0.16640762  0.99861243     0.80400
N73         N  0.74705400  0.15836074  0.47219540    -0.77900
C74         C  0.72232937  0.14450602  0.46993710     0.82900
N75         N  0.70871520  0.13846002  0.99398477    -0.77800
C76         C  0.71948935  0.14662160  0.01979784     0.83000
N77         N  0.74417414  0.16041702  0.02210388    -0.79500
C78         C  0.05169026  0.58938844  0.32150223     0.42700
N79         N  0.05655994  0.57447922  0.28467177     0.01500
C80         C  0.96892296  0.48835362  0.19056704    -0.06300
H81         H  0.95017137  0.45970088  0.29517862     0.07000
C82         C  0.03226003  0.46938677  0.29531895    -0.06700
Co83       Co  0.01100764  0.54344654  0.25017457     0.74200
N84         N  0.97874363  0.49360905  0.27505414    -0.25900
Co85       Co  0.99388728  0.48475066  0.24378591     0.74100
C86         C  0.00775077  0.45149366  0.30668401     0.42800
N87         N  0.07652531  0.53069890  0.28117520     0.01200
N88         N  0.00605411  0.47213176  0.27402728     0.01300
N89         N  0.98040543  0.52665153  0.19625337    -0.46700
H90         H  0.01113950  0.57060736  0.31060887     0.07000
N91         N  0.98569910  0.51614187  0.27764879     0.01600
N92         N  0.00966690  0.47678136  0.21248520     0.01300
C93         C  0.01480276  0.46015386  0.17773559     0.42900
N94         N  0.08320053  0.55314641  0.28295422    -0.25300
C95         C  0.03341478  0.58198548  0.20229174    -0.06200
N96         N  0.06833578  0.58915599  0.30664639    -0.46400
N97         N  0.99809649  0.46133378  0.19099875    -0.46600
C98         C  0.05762504  0.59895101  0.19005546     0.42700
N99         N  0.98955056  0.52103064  0.21645107     0.01500
N100        N  0.08646907  0.55749424  0.22163877    -0.25300
N101        N  0.03328508  0.56553403  0.28377708    -0.25800
N102        N  0.08008866  0.53516925  0.21942676     0.01200
H103        H  0.11225791  0.59086238  0.19911516     0.07100
H104        H  0.05495784  0.47869673  0.19010041     0.07100
N105        N  0.98306171  0.49870899  0.21375706    -0.25900
N106        N  0.02934667  0.48115646  0.27529158    -0.25500
N107        N  0.05964078  0.57903446  0.22313477     0.01500
C108        C  0.95638624  0.49567748  0.30721886     0.42900
C109        C  0.09778588  0.56425756  0.30560467    -0.06700
N110        N  0.03283456  0.48542154  0.21429450    -0.25500
H111        H  0.04940492  0.47274024  0.30065435     0.07100
N112        N  0.97283057  0.51817312  0.29664125    -0.46700
H113        H  0.10646854  0.58292457  0.31223665     0.07100
C114        C  0.10736503  0.55547674  0.18747084     0.42800
C115        C  0.02846701  0.57408042  0.30616628    -0.06200
Co116      Co  0.07192628  0.56655103  0.25307182     0.73800
N117        N  0.08588680  0.52557816  0.30176707    -0.46400
C118        C  0.96726970  0.50708431  0.17887890     0.43000
N119        N  0.07309834  0.59647433  0.20430593    -0.46400
Co120      Co  0.05498586  0.50794542  0.24754327     0.73900
C121        C  0.03774514  0.47577505  0.19334617    -0.06700
C122        C  0.96028722  0.47925545  0.29315531    -0.06300
N123        N  0.03643865  0.57032194  0.22239588    -0.25800
N124        N  0.99246946  0.45426128  0.29236400    -0.46600
H125        H  0.96064408  0.46994501  0.18323819     0.07100
C126        C  0.10353842  0.57165606  0.20217918    -0.06700
Cl127      Cl  0.03292551  0.52563949  0.24865676    -0.49700
C128        C  0.09911385  0.54578533  0.31822214     0.42800
H129        H  0.01645926  0.57908865  0.19712836     0.07000
N130        N  0.09214741  0.53313678  0.19917007    -0.46400
C131        C  0.23928433  0.57042393  0.00138160     0.80400
N132        N  0.22761171  0.56890026  0.47765910    -0.77900
C133        C  0.20932304  0.57125794  0.47850125     0.82900
N134        N  0.20277585  0.57497542  0.00366043    -0.77800
C135        C  0.21393319  0.57606905  0.02799314     0.83000
N136        N  0.23214850  0.57361550  0.02679436    -0.79500
C137        C  0.93501518  0.30497087  0.99554248     0.80400
N138        N  0.94538754  0.31780285  0.47096189    -0.77900
C139        C  0.96592537  0.34122377  0.47182789     0.82900
N140        N  0.97559937  0.35201506  0.99748124    -0.77800
C141        C  0.96550993  0.33976014  0.02199539     0.83000
N142        N  0.94482134  0.31631803  0.02095881    -0.79500
C143        C  0.83733244  0.49738471  0.99411973     0.80400
N144        N  0.84022464  0.49050057  0.46797636    -0.77900
C145        C  0.85414022  0.48257385  0.46513563     0.82900
N146        N  0.86618737  0.48277611  0.98829260    -0.77800
C147        C  0.86441038  0.49044098  0.01391452     0.83000
N148        N  0.84975228  0.49747881  0.01673475    -0.79500
C149        C  0.13469662  0.74664260  0.00226130     0.80400
N150        N  0.12492476  0.73307244  0.47862853    -0.77900
C151        C  0.10535707  0.70924810  0.48007253     0.82900
N152        N  0.09572738  0.69897314  0.00535224    -0.77800
C153        C  0.10489684  0.71247682  0.02947186     0.83000
N154        N  0.12470580  0.73634586  0.02785676    -0.79500
C155        C  0.62675239  0.57910124  0.18353504     0.42700
N156        N  0.61047652  0.58566823  0.21755212     0.01500
C157        C  0.51833245  0.49928955  0.30716916    -0.06300
H158        H  0.49327904  0.48706700  0.19933789     0.07000
C159        C  0.50663465  0.56873265  0.20557876    -0.06700
Co160      Co  0.57594320  0.54026310  0.25095771     0.74200
N161        N  0.52670165  0.51163974  0.22324162    -0.25900
Co162      Co  0.51858563  0.52697699  0.25493180     0.74100
C163        C  0.48763793  0.54469730  0.19375799     0.42800
N164        N  0.56943536  0.61006096  0.22033167     0.01200
N165        N  0.50773562  0.54103037  0.22523248     0.01300
N166        N  0.55609482  0.50869803  0.30392724    -0.46700
H167        H  0.60393555  0.53816571  0.19424347     0.07000
N168        N  0.54852795  0.51657723  0.22194040     0.01600
N169        N  0.51172067  0.54323028  0.28664534     0.01300
C170        C  0.49735582  0.54928245  0.32294484     0.42900
N171        N  0.59128628  0.61506758  0.21860741    -0.25300
C172        C  0.61317156  0.56014836  0.30071219    -0.06200
N173        N  0.62716482  0.59670226  0.19727758    -0.46400
N174        N  0.49623833  0.53188453  0.30793759    -0.46600
C175        C  0.63187363  0.58409616  0.31270718     0.42700
N176        N  0.55210778  0.51908531  0.28353667     0.01500
N177        N  0.59522282  0.61791621  0.28012271    -0.25300
N178        N  0.59973086  0.56201072  0.21853186    -0.25800
N179        N  0.57323859  0.61252159  0.28188640     0.01200
H180        H  0.62874549  0.64285740  0.30373216     0.07100
H181        H  0.51913012  0.59028067  0.31345365     0.07100
N182        N  0.53018786  0.51384401  0.28489493    -0.25900
N183        N  0.51812857  0.56463008  0.22480190    -0.25500
N184        N  0.61364734  0.58818564  0.27919596     0.01500
C185        C  0.52803012  0.49047770  0.18871121     0.42900
C186        C  0.60317580  0.62988680  0.19651865    -0.06700
N187        N  0.52232626  0.56689842  0.28629204    -0.25500
H188        H  0.51053332  0.58621376  0.20121728     0.07100
N189        N  0.54998355  0.50398831  0.20186146    -0.46700
H190        H  0.62177965  0.63777780  0.19043716     0.07100
C191        C  0.59366932  0.63863537  0.31513089     0.42800
C192        C  0.60866089  0.55612555  0.19783309    -0.06200
Co193      Co  0.60319933  0.60220866  0.24877079     0.73800
N194        N  0.56566387  0.62102576  0.20044884    -0.46400
C195        C  0.53578758  0.49634973  0.32003763     0.43000
N196        N  0.63123320  0.60071765  0.29848711    -0.46400
Co197      Co  0.54566514  0.58883525  0.25331952     0.73900
C198        C  0.51434342  0.57246863  0.30856532    -0.06700
C199        C  0.51238071  0.49522777  0.20295628    -0.06300
N200        N  0.60296781  0.56450871  0.27997579    -0.25800
N201        N  0.48910242  0.52832946  0.20727638    -0.46600
H202        H  0.49974864  0.49149484  0.31324333     0.07100
C203        C  0.60960279  0.63457034  0.30021105    -0.06700
Cl204      Cl  0.56085036  0.56458208  0.25190073    -0.49700
C205        C  0.58596590  0.63346211  0.18426849     0.42800
H206        H  0.60861796  0.54254643  0.30605180     0.07000
N207        N  0.57160064  0.62469921  0.30230952    -0.46400
C208        C  0.50409127  0.35455496  0.50297723     0.80400
N209        N  0.50574166  0.36601684  0.47862610    -0.77900
C210        C  0.50545891  0.38560942  0.47963367     0.82900
N211        N  0.50443077  0.39422210  0.50500907    -0.77800
C212        C  0.50277075  0.38295380  0.02831271     0.83000
N213        N  0.50290130  0.36330981  0.02727752    -0.79500
C214        C  0.36036783  0.53269257  0.50400269     0.80400
N215        N  0.36887484  0.53167061  0.02894357    -0.77900
C216        C  0.38779627  0.53024842  0.03035709     0.82900
N217        N  0.39851271  0.53041707  0.50652559    -0.77800
C218        C  0.39051894  0.53202925  0.48098674     0.83000
N219        N  0.37138391  0.53309319  0.47978008    -0.79500
C220        C  0.74485120  0.56922240  0.49760523     0.80400
N221        N  0.73623023  0.57181870  0.02267861    -0.77900
C222        C  0.72367173  0.58134157  0.02242388     0.82900
N223        N  0.71895779  0.58730025  0.49702850    -0.77800
C224        C  0.72729227  0.58477796  0.47231517     0.83000
N225        N  0.73988969  0.57529324  0.47257572    -0.79500
C226        C  0.60750383  0.76907150  0.49908504     0.80400
N227        N  0.61275865  0.76262451  0.47459533    -0.77900
C228        C  0.61841743  0.74674552  0.47501423     0.82900
N229        N  0.61825453  0.73709506  0.50009682    -0.77800
C230        C  0.61316669  0.74339516  0.02544423     0.83000
N231        N  0.60758562  0.75924899  0.02502446    -0.79500
C232        C  0.42504256  0.55104654  0.41098955    -0.22300
C233        C  0.42981521  0.53391528  0.40887366     0.09700
C234        C  0.42061935  0.51562404  0.42957048     0.10100
C235        C  0.40714588  0.51511465  0.45226811    -0.17200
C236        C  0.40293381  0.53267480  0.45502233    -0.27600
C237        C  0.41212050  0.55101735  0.43410237     0.18400
C238        C  0.44656648  0.53696205  0.38651368     0.12400
C239        C  0.42527914  0.49682726  0.42784885    -0.12000
H240        H  0.40022233  0.50115584  0.46832375     0.12700
C241        C  0.41033908  0.57182721  0.43622923    -0.22800
H242        H  0.43256822  0.56532653  0.39523761     0.08300
C243        C  0.43869201  0.52923634  0.35829158     0.04700
C244        C  0.45563467  0.53301641  0.33800274    -0.20000
C245        C  0.48014782  0.54434698  0.34544854    -0.12300
C246        C  0.48780235  0.55135446  0.37388767     0.13400
C247        C  0.47093961  0.54779423  0.39402323    -0.22700
C248        C  0.41248891  0.51695864  0.34970574    -0.05800
H249        H  0.44985388  0.52747386  0.31616255     0.14900
C250        C  0.51335176  0.56206857  0.38388014    -0.16000
H251        H  0.47680439  0.55340596  0.41583821     0.09200
H252        H  0.39925294  0.57077697  0.41824930     0.07100
H253        H  0.42898009  0.58945314  0.43510900     0.08300
H254        H  0.40220343  0.57214787  0.45627280     0.07300
H255        H  0.44523297  0.50591429  0.42900593     0.02200
H256        H  0.41790601  0.48655510  0.40752891     0.02700
H257        H  0.41638591  0.48354328  0.44549635     0.06200
H258        H  0.40934942  0.51176206  0.32689004     0.05200
H259        H  0.40762148  0.52951242  0.35350656    -0.00600
H260        H  0.40023135  0.50012613  0.36234807     0.00900
H261        H  0.52165940  0.58026338  0.39358711     0.04500
H262        H  0.52542729  0.56417342  0.36659585     0.06500
H263        H  0.51255138  0.54997696  0.40016838     0.07400
C264        C  0.39673709  0.51547298  0.10492715    -0.22300
C265        C  0.42203549  0.53324735  0.10816353     0.09700
C266        C  0.43569560  0.55012173  0.08628656     0.10100
C267        C  0.42371259  0.54881262  0.06151073    -0.17200
C268        C  0.39845154  0.53082530  0.05784740    -0.27600
C269        C  0.38475147  0.51379195  0.07978492     0.18400
C270        C  0.43467275  0.53273791  0.13317430     0.12400
C271        C  0.46305616  0.56913322  0.08878242    -0.12000
H272        H  0.43420974  0.56177299  0.04466721     0.12700
C273        C  0.35799861  0.49279146  0.07684078    -0.22800
H274        H  0.38649203  0.50225488  0.12162312     0.08300
C275        C  0.44156445  0.54874452  0.15630425     0.04700
C276        C  0.45826961  0.55156105  0.17630268    -0.20000
C277        C  0.46821252  0.53874570  0.17359944    -0.12300
C278        C  0.46016287  0.52167620  0.15110724     0.13400
C279        C  0.44319115  0.51868643  0.13143718    -0.22700
C280        C  0.43167771  0.56316170  0.15946277    -0.05800
H281        H  0.46399144  0.56424610  0.19382771     0.14900
C282        C  0.47018836  0.50762171  0.14556934    -0.16000
H283        H  0.43785885  0.50652162  0.11341690     0.09200
H284        H  0.34728309  0.49495723  0.09241109     0.07100
H285        H  0.35522260  0.47537706  0.08107957     0.08300
H286        H  0.35077757  0.49122202  0.05532102     0.07300
H287        H  0.47194993  0.56008086  0.09155750     0.02200
H288        H  0.46755539  0.58124422  0.10728761     0.02700
H289        H  0.47088767  0.58073149  0.06959275     0.06200
H290        H  0.43885872  0.57476441  0.17888277     0.05200
H291        H  0.41141124  0.55043239  0.16088086    -0.00600
H292        H  0.43688831  0.57524298  0.14091428     0.00900
H293        H  0.45524446  0.48774412  0.14735065     0.04500
H294        H  0.48514858  0.51240808  0.16006140     0.06500
H295        H  0.47770890  0.51149240  0.12374869     0.07400
C296        C  0.63207165  0.71461441  0.42180843    -0.22300
C297        C  0.61663722  0.71069206  0.39943308     0.09700
C298        C  0.60432655  0.72129867  0.40036778     0.10100
C299        C  0.60655006  0.73439052  0.42465063    -0.17200
C300        C  0.62052762  0.73678291  0.44817755    -0.27600
C301        C  0.63427722  0.72756707  0.44620146     0.18400
C302        C  0.61126916  0.69284082  0.37718940     0.12400
C303        C  0.58847191  0.71834274  0.37599693    -0.12000
H304        H  0.59621955  0.74162226  0.42578539     0.12700
C305        C  0.65128836  0.73113897  0.46951200    -0.22800
H306        H  0.64156036  0.70647447  0.42069770     0.08300
C307        C  0.62808683  0.69835540  0.35561502     0.04700
C308        C  0.62225986  0.68004932  0.33603456    -0.20000
C309        C  0.60009817  0.65642106  0.33784166    -0.12300
C310        C  0.58374206  0.65077610  0.36022184     0.13400
C311        C  0.58937704  0.66920014  0.37926689    -0.22700
C312        C  0.65185991  0.72359051  0.35302996    -0.05800
H313        H  0.63477404  0.68435695  0.31888502     0.14900
C314        C  0.56083589  0.62537769  0.36571923    -0.16000
H315        H  0.57689050  0.66492017  0.39646702     0.09200
H316        H  0.66235836  0.72503403  0.46280617     0.07100
H317        H  0.64072868  0.72025524  0.48837822     0.08300
H318        H  0.66415194  0.75079734  0.47529256     0.07300
H319        H  0.57317009  0.69872921  0.37261633     0.02200
H320        H  0.59960569  0.72580801  0.35640389     0.02700
H321        H  0.58049128  0.72816938  0.37997946     0.06200
H322        H  0.66270759  0.72493648  0.33462930     0.05200
H323        H  0.66307305  0.72829404  0.37248219    -0.00600
H324        H  0.64809442  0.73708616  0.35017282     0.00900
H325        H  0.56120887  0.62033660  0.38794620     0.04500
H326        H  0.55901214  0.61120578  0.35206482     0.06500
H327        H  0.54449305  0.62492461  0.36270909     0.07400
C328        C  0.60750330  0.67042459  0.11627744    -0.22300
C329        C  0.60040197  0.68545216  0.12112953     0.09700
C330        C  0.58827926  0.68316746  0.14641765     0.10100
C331        C  0.58369095  0.66589177  0.16656235    -0.17200
C332        C  0.59076093  0.65073040  0.16177907    -0.27600
C333        C  0.60244792  0.65275128  0.13601822     0.18400
C334        C  0.60362861  0.70159236  0.09804883     0.12400
C335        C  0.58008640  0.69884359  0.15196206    -0.12000
H336        H  0.57465904  0.66430828  0.18621264     0.12700
C337        C  0.60859990  0.63582715  0.12769459    -0.22800
H338        H  0.61622113  0.67187092  0.09639458     0.08300
C339        C  0.62545307  0.72546520  0.09479319     0.04700
C340        C  0.62790945  0.73930120  0.07130961    -0.20000
C341        C  0.60908933  0.72950207  0.05111960    -0.12300
C342        C  0.58712195  0.70571249  0.05468335     0.13400
C343        C  0.58467598  0.69208858  0.07819306    -0.22700
C344        C  0.64616753  0.73603518  0.11577650    -0.05800
H345        H  0.64474637  0.75750771  0.06827760     0.14900
C346        C  0.56600465  0.69400341  0.03398328    -0.16000
H347        H  0.56798437  0.67369369  0.08082816     0.09200
H348        H  0.62875785  0.64641820  0.12598752     0.07100
H349        H  0.60019488  0.62737071  0.10674795     0.08300
H350        H  0.60157290  0.62062962  0.14268688     0.07300
H351        H  0.56691695  0.69550148  0.13527275     0.02200
H352        H  0.59613452  0.71842076  0.15179077     0.02700
H353        H  0.57095681  0.69481159  0.17284982     0.06200
H354        H  0.66192133  0.75492611  0.11008506     0.05200
H355        H  0.65259655  0.72457361  0.11633603    -0.00600
H356        H  0.63984576  0.73655137  0.13723147     0.00900
H357        H  0.56242318  0.67711862  0.02505486     0.04500
H358        H  0.56929905  0.70600965  0.01606656     0.06500
H359        H  0.54936955  0.68910783  0.04519749     0.07400
C360        C  0.70716829  0.61111863  0.41997667    -0.22300
C361        C  0.69519125  0.59233585  0.39975369     0.09700
C362        C  0.69725119  0.57310618  0.40100184     0.10100
C363        C  0.70971661  0.57209139  0.42390437    -0.17200
C364        C  0.72014072  0.58992585  0.44543477    -0.27600
C365        C  0.71998817  0.61038419  0.44259636     0.18400
C366        C  0.67928242  0.59226601  0.37851030     0.12400
C367        C  0.68568044  0.55334039  0.37860281    -0.12000
H368        H  0.71003601  0.55656025  0.42586120     0.12700
C369        C  0.73322692  0.63179864  0.46287333    -0.22800
H370        H  0.70607077  0.62618903  0.41842698     0.08300
C371        C  0.65389756  0.57883420  0.38309481     0.04700
C372        C  0.63901633  0.57723154  0.36138592    -0.20000
C373        C  0.64903127  0.58928497  0.33557617    -0.12300
C374        C  0.67467176  0.60383563  0.33154277     0.13400
C375        C  0.68949843  0.60510762  0.35318577    -0.22700
C376        C  0.64254238  0.56611628  0.41082998    -0.05800
H377        H  0.61937631  0.56623653  0.36440537     0.14900
C378        C  0.68696158  0.61724692  0.30440818    -0.16000
H379        H  0.70907131  0.61559882  0.34997427     0.09200
H380        H  0.71976225  0.63287843  0.47434045     0.07100
H381        H  0.74571194  0.64892277  0.45077297     0.08300
H382        H  0.74466538  0.63080980  0.47853681     0.07300
H383        H  0.69342411  0.56159671  0.35754544     0.02200
H384        H  0.66558981  0.54357686  0.37801421     0.02700
H385        H  0.68909563  0.53971537  0.38273010     0.06200
H386        H  0.62247550  0.55662818  0.41092456     0.05200
H387        H  0.65083273  0.57972728  0.42840125    -0.00600
H388        H  0.64573107  0.55232123  0.41476694     0.00900
H389        H  0.70019136  0.63711638  0.30897398     0.04500
H390        H  0.67402867  0.61462590  0.28796979     0.06500
H391        H  0.69704817  0.61070929  0.29539937     0.07400
C392        C  0.67052442  0.60249432  0.12051001    -0.22300
C393        C  0.67581851  0.58571756  0.12034127     0.09700
C394        C  0.66659139  0.56823825  0.14198091     0.10100
C395        C  0.65139239  0.56727113  0.16270648    -0.17200
C396        C  0.64474442  0.58308479  0.16213810    -0.27600
C397        C  0.65481044  0.60124440  0.14080542     0.18400
C398        C  0.68835306  0.58474009  0.09542822     0.12400
C399        C  0.67211684  0.55006950  0.14262757    -0.12000
H400        H  0.64433933  0.55369643  0.17921541     0.12700
C401        C  0.64851826  0.61867520  0.13726015    -0.22800
H402        H  0.67761942  0.61581476  0.10364574     0.08300
C403        C  0.67536186  0.57354057  0.06995765     0.04700
C404        C  0.68753835  0.57266428  0.04677360    -0.20000
C405        C  0.71239114  0.58254817  0.04838546    -0.12300
C406        C  0.72547499  0.59380160  0.07397838     0.13400
C407        C  0.71315903  0.59456223  0.09729438    -0.22700
C408        C  0.64851241  0.56216285  0.06736004    -0.05800
H409        H  0.67750694  0.56402615  0.02721061     0.14900
C410        C  0.75246956  0.60607566  0.07723883    -0.16000
H411        H  0.72303928  0.60317692  0.11693751     0.09200
H412        H  0.64135124  0.61677987  0.11547188     0.07100
H413        H  0.66524842  0.63771873  0.14030686     0.08300
H414        H  0.63435978  0.61543982  0.15194228     0.07300
H415        H  0.69216981  0.55986755  0.14453929     0.02200
H416        H  0.66538964  0.53899428  0.12280654     0.02700
H417        H  0.66319607  0.53741024  0.16083451     0.06200
H418        H  0.64105951  0.55368572  0.04615306     0.05200
H419        H  0.64564431  0.57629654  0.07051829    -0.00600
H420        H  0.63804681  0.54772594  0.08358514     0.00900
H421        H  0.76198003  0.62540528  0.08380413     0.04500
H422        H  0.76121931  0.60624269  0.05745392     0.06500
H423        H  0.75535655  0.59663453  0.09385825     0.07400
C424        C  0.49970825  0.40628401  0.40766626    -0.22300
C425        C  0.51998638  0.43097981  0.40870695     0.09700
C426        C  0.53592675  0.44025656  0.43227945     0.10100
C427        C  0.53081374  0.42467189  0.45479509    -0.17200
C428        C  0.51021319  0.40006369  0.45418184    -0.27600
C429        C  0.49448569  0.39063699  0.43027455     0.18400
C430        C  0.52362846  0.44718205  0.38554061     0.12400
C431        C  0.55824114  0.46658091  0.43368733    -0.12000
H432        H  0.54285810  0.43176795  0.47315595     0.12700
C433        C  0.47154759  0.36470547  0.42840977    -0.22800
H434        H  0.48751941  0.39937236  0.38945386     0.08300
C435        C  0.53602608  0.44938019  0.36057886     0.04700
C436        C  0.53989988  0.46583245  0.33973819    -0.20000
C437        C  0.53158070  0.48003563  0.34334483    -0.12300
C438        C  0.51944982  0.47804160  0.36870602     0.13400
C439        C  0.51530512  0.46129126  0.38928412    -0.22700
C440        C  0.54520608  0.43444660  0.35607098    -0.05800
H441        H  0.54923313  0.46740371  0.32035624     0.14900
C442        C  0.51173107  0.49395840  0.37565813    -0.16000
H443        H  0.50611820  0.45970351  0.40882104     0.09200
H444        H  0.47294672  0.35523027  0.41028719     0.07100
H445        H  0.45552849  0.36472746  0.42493228     0.08300
H446        H  0.46803187  0.35415748  0.44789046     0.07300
H447        H  0.55267358  0.47876212  0.43288606     0.02200
H448        H  0.57040362  0.47064495  0.41548661     0.02700
H449        H  0.56886418  0.47070511  0.45355086     0.06200
H450        H  0.55461655  0.43847258  0.33537711     0.05200
H451        H  0.52959760  0.41469872  0.35645204    -0.00600
H452        H  0.55838471  0.43852720  0.37314631     0.00900
H453        H  0.49146447  0.48251908  0.37686511     0.04500
H454        H  0.51823434  0.50874332  0.36020782     0.06500
H455        H  0.51955010  0.50299597  0.39654831     0.07400
C456        C  0.50578120  0.45324951  0.12057712    -0.22300
C457        C  0.51008561  0.43619860  0.12665165     0.09700
C458        C  0.51943921  0.43646047  0.15338272     0.10100
C459        C  0.52468475  0.45418497  0.17345589    -0.17200
C460        C  0.52088932  0.47164409  0.16720682    -0.27600
C461        C  0.51134425  0.47121055  0.14041055     0.18400
C462        C  0.50796223  0.42067794  0.10329592     0.12400
C463        C  0.52427799  0.41834360  0.16042018    -0.12000
H464        H  0.53206393  0.45462441  0.19400393     0.12700
C465        C  0.50820812  0.49015056  0.13124091    -0.22800
H466        H  0.49911501  0.45324479  0.09969608     0.08300
C467        C  0.48563582  0.39806097  0.09622603     0.04700
C468        C  0.48457627  0.38518434  0.07228381    -0.20000
C469        C  0.50531563  0.39478597  0.05539250    -0.12300
C470        C  0.52779767  0.41713237  0.06302099     0.13400
C471        C  0.52879564  0.42978856  0.08691866    -0.22700
C472        C  0.46298413  0.38793755  0.11353438    -0.05800
H473        H  0.46737942  0.36811604  0.06611231     0.14900
C474        C  0.55101961  0.42829992  0.04629840    -0.16000
H475        H  0.54589330  0.44719285  0.09255884     0.09200
H476        H  0.48861797  0.48108977  0.12638645     0.07100
H477        H  0.51908637  0.49930098  0.11179528     0.08300
H478        H  0.51443392  0.50456250  0.14739161     0.07300
H479        H  0.53795412  0.42044031  0.14552262     0.02200
H480        H  0.50702992  0.39948568  0.15859852     0.02700
H481        H  0.53149572  0.42100879  0.18233584     0.06200
H482        H  0.44706005  0.37006260  0.10506790     0.05200
H483        H  0.45830175  0.40085116  0.11328472    -0.00600
H484        H  0.46624510  0.38528887  0.13576375     0.00900
H485        H  0.55713487  0.44621201  0.03776630     0.04500
H486        H  0.54893695  0.41671857  0.02831587     0.06500
H487        H  0.56554780  0.43120785  0.06044744     0.07400
C488        C  0.80735917  0.52650337  0.02172948    -0.22300
C489        C  0.79432444  0.52446522  0.49766720     0.09700
C490        C  0.79246714  0.51051255  0.47438539     0.10100
C491        C  0.80639840  0.50172635  0.47415977    -0.17200
C492        C  0.82198310  0.50619218  0.99687519    -0.27600
C493        C  0.82129154  0.51766252  0.02179001     0.18400
C494        C  0.78136796  0.53564558  0.49801345     0.12400
C495        C  0.77575328  0.50491158  0.44974772    -0.12000
H496        H  0.80480415  0.49107467  0.45605022     0.12700
C497        C  0.83523968  0.52123797  0.04855376    -0.22800
H498        H  0.80714235  0.53567494  0.04037304     0.08300
C499        C  0.75871562  0.52461060  0.01240180     0.04700
C500        C  0.74752057  0.53630143  0.01228521    -0.20000
C501        C  0.75830462  0.55859978  0.49793481    -0.12300
C502        C  0.78049802  0.56914264  0.48303516     0.13400
C503        C  0.79149485  0.55730001  0.48297158    -0.22700
C504        C  0.74639885  0.50045650  0.02712609    -0.05800
H505        H  0.73004397  0.52773747  0.02269673     0.14900
C506        C  0.79382706  0.59335001  0.46808830    -0.16000
H507        H  0.80844386  0.56530091  0.47152643     0.09200
H508        H  0.82882758  0.50325004  0.05711544     0.07100
H509        H  0.83243970  0.53066461  0.06542743     0.08300
H510        H  0.85517099  0.53269582  0.04417824     0.07300
H511        H  0.78143237  0.52215471  0.43960057     0.02200
H512        H  0.75664111  0.49485512  0.45735724     0.02700
H513        H  0.77619063  0.49349559  0.43337772     0.06200
H514        H  0.72869166  0.49422914  0.03664743     0.05200
H515        H  0.75837618  0.50212567  0.04437277    -0.00600
H516        H  0.74277274  0.48635680  0.01166146     0.00900
H517        H  0.81284839  0.60576647  0.47641049     0.04500
H518        H  0.78544502  0.60280552  0.47128933     0.06500
H519        H  0.79449943  0.59056768  0.44500027     0.07400
C520        C  0.29604461  0.57397058  0.01569845    -0.22300
C521        C  0.29062072  0.55390278  0.50032710     0.09700
C522        C  0.26892725  0.54000096  0.48405806     0.10100
C523        C  0.25280060  0.54618526  0.48448679    -0.17200
C524        C  0.25803262  0.56620874  0.00017387    -0.27600
C525        C  0.28023518  0.58054698  0.01579324     0.18400
C526        C  0.30821338  0.54812531  0.50063758     0.12400
C527        C  0.26286088  0.51868955  0.46627905    -0.12000
H528        H  0.23583696  0.53515692  0.47251512     0.12700
C529        C  0.28848737  0.60346479  0.03172688    -0.22800
H530        H  0.31296177  0.58476285  0.02781056     0.08300
C531        C  0.32879204  0.56035072  0.48276850     0.04700
C532        C  0.34510159  0.55443096  0.48395206    -0.20000
C533        C  0.34125123  0.53644586  0.50249009    -0.12300
C534        C  0.32003756  0.52359329  0.01855927     0.13400
C535        C  0.30401128  0.52990707  0.01780995    -0.22700
C536        C  0.33351318  0.57964542  0.46249609    -0.05800
H537        H  0.36124269  0.56428800  0.47069476     0.14900
C538        C  0.31279154  0.50209472  0.03647619    -0.16000
H539        H  0.28774663  0.52005999  0.03089354     0.09200
H540        H  0.30698416  0.61888661  0.02434168     0.07100
H541        H  0.28944658  0.60085435  0.05476463     0.08300
H542        H  0.27643427  0.60894664  0.02837447     0.07300
H543        H  0.26129987  0.50474663  0.48005109     0.02200
H544        H  0.27752764  0.52502132  0.45046880     0.02700
H545        H  0.24527749  0.50989683  0.45465106     0.06200
H546        H  0.35034075  0.58728767  0.44987583     0.05200
H547        H  0.33579683  0.59486707  0.47446967    -0.00600
H548        H  0.31785060  0.57163983  0.44755105     0.00900
H549        H  0.31378384  0.50675175  0.05927374     0.04500
H550        H  0.32428266  0.49606085  0.03258870     0.06500
H551        H  0.29371531  0.48625871  0.03119734     0.07400
C552        C  0.91571083  0.49929086  0.05856624    -0.22300
C553        C  0.90621158  0.49584610  0.08580038     0.09700
C554        C  0.88318389  0.49079115  0.08962772     0.10100
C555        C  0.86991664  0.48901758  0.06577769    -0.17200
C556        C  0.87918161  0.49216131  0.03821670    -0.27600
C557        C  0.90258962  0.49751931  0.03463482     0.18400
C558        C  0.92123798  0.49830200  0.10996075     0.12400
C559        C  0.87277597  0.48747478  0.11884948    -0.12000
H560        H  0.85213653  0.48499801  0.06869393     0.12700
C561        C  0.91447911  0.50222209  0.00600772    -0.22800
H562        H  0.93360042  0.50344332  0.05610975     0.08300
C563        C  0.91942233  0.47811286  0.12043716     0.04700
C564        C  0.93469498  0.48156610  0.14284469    -0.20000
C565        C  0.95209331  0.50485481  0.15470536    -0.12300
C566        C  0.95433839  0.52527502  0.14331902     0.13400
C567        C  0.93869230  0.52158707  0.12123222    -0.22700
C568        C  0.90160064  0.45301916  0.10766936    -0.05800
H569        H  0.93286552  0.46585375  0.15106030     0.14900
C570        C  0.97337251  0.55110847  0.15353186    -0.16000
H571        H  0.94019839  0.53699987  0.11240658     0.09200
H572        H  0.90405259  0.48529807  0.99292741     0.07100
H573        H  0.93346968  0.50800807  0.00786036     0.08300
H574        H  0.91529682  0.51674750  0.49512601     0.07300
H575        H  0.88528915  0.50433470  0.13163854     0.02200
H576        H  0.87063828  0.47192883  0.12953239     0.02700
H577        H  0.85456456  0.48367974  0.11807516     0.06200
H578        H  0.90261367  0.43923986  0.11827436     0.05200
H579        H  0.90576085  0.45334392  0.08485253    -0.00600
H580        H  0.88263193  0.44716273  0.10976426     0.00900
H581        H  0.99191101  0.55580621  0.15149240     0.04500
H582        H  0.96981735  0.55313492  0.17589332     0.06500
H583        H  0.97313295  0.56458904  0.14092189     0.07400
C584        C  0.89566014  0.46948251  0.34366636    -0.22300
C585        C  0.90399958  0.48334685  0.36873809     0.09700
C586        C  0.92937862  0.50042731  0.37385563     0.10100
C587        C  0.94588639  0.50376366  0.35332072    -0.17200
C588        C  0.93767154  0.49003158  0.32811877    -0.27600
C589        C  0.91217875  0.47273006  0.32307109     0.18400
C590        C  0.88609273  0.47967209  0.38979449     0.12400
C591        C  0.93904828  0.51490459  0.40115496    -0.12000
H592        H  0.96540111  0.51710657  0.35702326     0.12700
C593        C  0.90161007  0.45824336  0.29589511    -0.22800
H594        H  0.87612799  0.45638992  0.33991196     0.08300
C595        C  0.87959237  0.49561996  0.39154868     0.04700
C596        C  0.86651017  0.49444454  0.41521515    -0.20000
C597        C  0.85988652  0.47767276  0.43701712    -0.12300
C598        C  0.86394529  0.45986459  0.43341886     0.13400
C599        C  0.87732649  0.46132803  0.41001181    -0.22700
C600        C  0.88728137  0.51443505  0.36901329    -0.05800
H601        H  0.86316542  0.50790467  0.41771045     0.14900
C602        C  0.85474769  0.43933444  0.45404533    -0.16000
H603        H  0.88175121  0.44864504  0.40808573     0.09200
H604        H  0.88927188  0.46178719  0.28614490     0.07100
H605        H  0.89084575  0.43845023  0.30056495     0.08300
H606        H  0.91563454  0.46297284  0.27995034     0.07300
H607        H  0.93248413  0.50225362  0.41938955     0.02200
H608        H  0.93261243  0.52626284  0.40357889     0.02700
H609        H  0.95937716  0.52726780  0.40177640     0.06200
H610        H  0.88063399  0.52539769  0.37362605     0.05200
H611        H  0.87960242  0.50516478  0.34821003    -0.00600
H612        H  0.90752755  0.52713757  0.36754561     0.00900
H613        H  0.84370514  0.42161786  0.44243118     0.04500
H614        H  0.84278284  0.43847359  0.47059760     0.06500
H615        H  0.87050038  0.44146837  0.46442154     0.07400
C616        C  0.98979596  0.42091011  0.11139049    -0.22300
C617        C  0.99595418  0.40509613  0.11636645     0.09700
C618        C  0.00921357  0.40805078  0.14100185     0.10100
C619        C  0.01570174  0.42663836  0.16042532    -0.17200
C620        C  0.00877676  0.44190179  0.15590941    -0.27600
C621        C  0.99583410  0.43916060  0.13105256     0.18400
C622        C  0.98837811  0.38577194  0.09515920     0.12400
C623        C  0.01590474  0.39122945  0.14712729    -0.12000
H624        H  0.02562273  0.42883360  0.17959332     0.12700
C625        C  0.98892178  0.45581360  0.12490192    -0.22800
H626        H  0.98000874  0.41876542  0.09211237     0.08300
C627        C  0.96357578  0.36563189  0.09153386     0.04700
C628        C  0.95683730  0.34959802  0.06863357    -0.20000
C629        C  0.97430798  0.35353980  0.04905898    -0.12300
C630        C  0.99941633  0.37268208  0.05405896     0.13400
C631        C  0.00609169  0.38860445  0.07706579    -0.22700
C632        C  0.94418341  0.36135953  0.11147417    -0.05800
H633        H  0.93763714  0.33483181  0.06504884     0.14900
C634        C  0.01929464  0.37648946  0.03537065    -0.16000
H635        H  0.02514275  0.40396637  0.08029850     0.09200
H636        H  0.97611147  0.45357593  0.14128031     0.07100
H637        H  0.97974737  0.45171391  0.10393628     0.08300
H638        H  0.00560826  0.47509897  0.12481344     0.07300
H639        H  0.02810200  0.39285250  0.13030196     0.02200
H640        H  0.99905472  0.37206028  0.14792687     0.02700
H641        H  0.02563375  0.39566808  0.16775682     0.06200
H642        H  0.92583217  0.34436437  0.10603634     0.05200
H643        H  0.94306353  0.37679871  0.11044771    -0.00600
H644        H  0.94873512  0.35968114  0.13349932     0.00900
H645        H  0.01853994  0.38270220  0.01402558     0.04500
H646        H  0.01709014  0.35891643  0.53371900     0.06500
H647        H  0.03779085  0.39066498  0.04423636     0.07400
C648        C  0.97765713  0.36147441  0.39473517    -0.22300
C649        C  0.98582899  0.38560626  0.39802176     0.09700
C650        C  0.98961567  0.39566303  0.42536780     0.10100
C651        C  0.98397316  0.38092610  0.44897320    -0.17200
C652        C  0.97488906  0.35637342  0.44595533    -0.27600
C653        C  0.97267063  0.34682850  0.41839160     0.18400
C654        C  0.99050430  0.40034235  0.37269583     0.12400
C655        C  0.99948767  0.42193308  0.42962362    -0.12000
H656        H  0.98592894  0.38851728  0.46991016     0.12700
C657        C  0.96599779  0.32180586  0.41296008    -0.22800
H658        H  0.97545545  0.35413939  0.37356085     0.08300
C659        C  0.01277201  0.41244778  0.35801471     0.04700
C660        C  0.01748641  0.42842844  0.33610020    -0.20000
C661        C  0.00056527  0.43285880  0.32868991    -0.12300
C662        C  0.97779954  0.41995509  0.34302421     0.13400
C663        C  0.97310778  0.40380129  0.36479422    -0.22700
C664        C  0.03180785  0.40900814  0.36603790    -0.05800
H665        H  0.03471186  0.43767778  0.32502004     0.14900
C666        C  0.95859539  0.42348242  0.33637595    -0.16000
H667        H  0.95604760  0.39431660  0.37638984     0.09200
H668        H  0.97982204  0.32342879  0.39875295     0.07100
H669        H  0.94778704  0.31002923  0.40245805     0.08300
H670        H  0.96583849  0.31277350  0.43241721     0.07300
H671        H  0.98679906  0.42506781  0.42005670     0.02200
H672        H  0.01768867  0.43415406  0.41942957     0.02700
H673        H  0.00167506  0.42694222  0.45245705     0.06200
H674        H  0.04837163  0.42008601  0.35258848     0.05200
H675        H  0.02414033  0.38951211  0.36343787    -0.00600
H676        H  0.03747932  0.41462174  0.38847475     0.00900
H677        H  0.95207400  0.41772849  0.31419166     0.04500
H678        H  0.96627910  0.44294276  0.33949773     0.06500
H679        H  0.94240083  0.41238476  0.35037514     0.07400
C680        C  0.18696332  0.56291099  0.10200920    -0.22300
C681        C  0.17689757  0.57560739  0.10123784     0.09700
C682        C  0.18223038  0.59123474  0.07841952     0.10100
C683        C  0.19597438  0.59232989  0.05565734    -0.17200
C684        C  0.20460981  0.57822636  0.05525448    -0.27600
C685        C  0.20090567  0.56408607  0.07931657     0.18400
C686        C  0.15903569  0.57056953  0.12319833     0.12400
C687        C  0.17266074  0.60604361  0.07767807    -0.12000
H688        H  0.19915629  0.60352816  0.03751152     0.13000
C689        C  0.21025921  0.54909717  0.08066231    -0.22800
H690        H  0.18295236  0.55119685  0.11990418     0.08300
C691        C  0.13400548  0.55080460  0.12016763     0.04700
C692        C  0.11757232  0.54644914  0.14147385    -0.20000
C693        C  0.12553796  0.56170013  0.16541673    -0.12300
C694        C  0.15066943  0.58155749  0.16839890     0.13400
C695        C  0.16713503  0.58569874  0.14718487    -0.22700
C696        C  0.12467921  0.53440545  0.09437413    -0.05800
H697        H  0.09835657  0.53116198  0.13935416     0.14900
C698        C  0.16048091  0.59780662  0.19431971    -0.16000
H699        H  0.18642664  0.60076118  0.14928144     0.09200
H700        H  0.20257471  0.53579593  0.06278470     0.07100
H701        H  0.20496358  0.53864897  0.10071447     0.08300
H702        H  0.23055284  0.56128637  0.07961904     0.07300
H703        H  0.17972609  0.61852348  0.09632893     0.02200
H704        H  0.15235058  0.59372005  0.07820857     0.02700
H705        H  0.17847204  0.61728754  0.05821442     0.06200
H706        H  0.10459441  0.51991113  0.09528080     0.05200
H707        H  0.13373770  0.52542696  0.09281839    -0.00600
H708        H  0.12870440  0.54534078  0.07498913     0.00900
H709        H  0.18076780  0.61104328  0.19402172     0.04500
H710        H  0.15517359  0.58657710  0.21372145     0.06500
H711        H  0.15327737  0.60853359  0.19525679     0.07400
C712        C  0.12404174  0.53794373  0.38539698    -0.22300
C713        C  0.14876076  0.55809600  0.38361032     0.09700
C714        C  0.15709741  0.57396832  0.36030463     0.10100
C715        C  0.14028495  0.56961214  0.33946280    -0.17200
C716        C  0.11551355  0.54948654  0.34121424    -0.27600
C717        C  0.10720958  0.53339054  0.36444970     0.18400
C718        C  0.16534651  0.56276301  0.40709512     0.12400
C719        C  0.18365963  0.59546711  0.35753381    -0.12000
H720        H  0.14656367  0.58176834  0.32147297     0.12700
C721        C  0.08075424  0.51186418  0.36846970    -0.22800
H722        H  0.11779156  0.52593269  0.40353142     0.08300
C723        C  0.16622406  0.57446949  0.43213310     0.04700
C724        C  0.18137799  0.57761119  0.45443368    -0.20000
C725        C  0.19565534  0.56914099  0.45255258    -0.12300
C726        C  0.19515095  0.55791477  0.42682778     0.13400
C727        C  0.17994406  0.55491767  0.40447296    -0.22700
C728        C  0.15108335  0.58358440  0.43533741    -0.05800
H729        H  0.18177324  0.58656999  0.47363808     0.14900
C730        C  0.20981178  0.54836361  0.42265586    -0.16000
H731        H  0.17909013  0.54604903  0.38492460     0.09200
H732        H  0.07423189  0.51372879  0.38912079     0.07100
H733        H  0.07906571  0.49473024  0.36856862     0.08300
H734        H  0.06844072  0.51023361  0.35180189     0.07300
H735        H  0.19505738  0.58896336  0.35651590     0.02200
H736        H  0.18943669  0.60785698  0.37610353     0.02700
H737        H  0.18704003  0.60608297  0.33803192     0.06200
H738        H  0.15412145  0.59256103  0.45624467     0.05200
H739        H  0.13133632  0.56807739  0.43347456    -0.00600
H740        H  0.15600864  0.59709914  0.41853181     0.00900
H741        H  0.20458321  0.53427004  0.43877764     0.04500
H742        H  0.22966509  0.56359835  0.42424556     0.06500
H743        H  0.20652592  0.53975328  0.40143848     0.07400
C744        C  0.06609107  0.66502549  0.08592704    -0.22300
C745        C  0.08387810  0.67198566  0.10663822     0.09700
C746        C  0.10755120  0.69413026  0.10383440     0.10100
C747        C  0.11342505  0.70799259  0.07920468    -0.17200
C748        C  0.09620317  0.70002195  0.05721946    -0.27600
C749        C  0.07183607  0.67879640  0.06128402     0.18400
C750        C  0.07795619  0.65438774  0.12923682     0.12400
C751        C  0.12668783  0.70286547  0.12658212    -0.12000
H752        H  0.13198125  0.72438680  0.07648526     0.12700
C753        C  0.05171417  0.67034508  0.03991742    -0.22800
H754        H  0.04787430  0.64805843  0.08846455     0.08300
C755        C  0.06141482  0.64894612  0.15112034     0.04700
C756        C  0.05505364  0.63060756  0.17056077    -0.20000
C757        C  0.06491358  0.61768956  0.16859814    -0.12300
C758        C  0.08137036  0.62306352  0.14644815     0.13400
C759        C  0.08779497  0.64151065  0.12721216    -0.22700
C760        C  0.05080941  0.66270664  0.15420712    -0.05800
H761        H  0.04250956  0.62651904  0.18758149     0.14900
C762        C  0.09158914  0.60908987  0.14133632    -0.16000
H763        H  0.10004280  0.64540165  0.10988697     0.09200
H764        H  0.03349879  0.65523322  0.04833480     0.07100
H765        H  0.05465450  0.66332235  0.02045570     0.08300
H766        H  0.05106114  0.68567578  0.03457337     0.07300
H767        H  0.13080829  0.68963532  0.12919204     0.02200
H768        H  0.11989104  0.70477059  0.14698251     0.02700
H769        H  0.14404659  0.72087497  0.12132681     0.06200
H770        H  0.03873415  0.65659733  0.17301311     0.05200
H771        H  0.03975866  0.65976313  0.13518477    -0.00600
H772        H  0.06584456  0.68252563  0.15671427     0.00900
H773        H  0.08723015  0.60179834  0.11929484     0.04500
H774        H  0.08394622  0.59326157  0.15549084     0.06500
H775        H  0.11178480  0.62153271  0.14405771     0.07400
C776        C  0.09852199  0.66313127  0.42903838    -0.22300
C777        C  0.08102704  0.65996550  0.41017951     0.09700
C778        C  0.07204988  0.67367002  0.41367901     0.10100
C779        C  0.08077787  0.69031738  0.43636678    -0.17200
C780        C  0.09812174  0.69327110  0.45538281    -0.27600
C781        C  0.10723644  0.67965295  0.45166446     0.18400
C782        C  0.07274232  0.64230780  0.38674353     0.12400
C783        C  0.05327669  0.67058940  0.39356001    -0.12000
H784        H  0.07380278  0.70074200  0.43956045     0.12700
C785        C  0.12607065  0.68200705  0.47113997    -0.22800
H786        H  0.10539500  0.65258109  0.42606464     0.08300
C787        C  0.08657924  0.64884948  0.36177423     0.04700
C788        C  0.07915464  0.63102680  0.34094839    -0.20000
C789        C  0.05817853  0.60687808  0.34453221    -0.12300
C790        C  0.04430896  0.60030715  0.36968084     0.13400
C791        C  0.05173520  0.61826741  0.39042944    -0.22700
C792        C  0.10913284  0.67462709  0.35716031    -0.05800
H793        H  0.08970744  0.63602093  0.32163486     0.14900
C794        C  0.02244247  0.57452361  0.37609106    -0.16000
H795        H  0.04147320  0.61336157  0.40997433     0.09200
H796        H  0.14245475  0.68769466  0.45867862     0.07100
H797        H  0.11830171  0.66406842  0.48103598     0.08300
H798        H  0.13219707  0.69559887  0.48838487     0.07300
H799        H  0.03641687  0.65142040  0.39409047     0.02200
H800        H  0.06064611  0.67501619  0.37166589     0.02700
H801        H  0.04828151  0.68277646  0.39927208     0.06200
H802        H  0.11765201  0.67667002  0.33628398     0.05200
H803        H  0.12289908  0.67983444  0.37394474    -0.00600
H804        H  0.10423025  0.68736022  0.35790321     0.00900
H805        H  0.02551017  0.56871549  0.39649824     0.04500
H806        H  0.01894548  0.56108994  0.35980604     0.06500
H807        H  0.00586037  0.57378732  0.37801288     0.07400
C808        C  0.82276907  0.22171127  0.01584552    -0.22300
C809        C  0.83615359  0.21788623  0.49709297     0.09700
C810        C  0.82423817  0.19603271  0.48128356     0.10100
C811        C  0.79867295  0.17917959  0.48264447    -0.17200
C812        C  0.78505486  0.18336906  0.00057810    -0.27600
C813        C  0.79729575  0.20482697  0.01753905     0.18400
C814        C  0.86234852  0.23797210  0.49364152     0.12400
C815        C  0.83847817  0.19060906  0.46303745    -0.12000
H816        H  0.78927877  0.16260190  0.46996490     0.12700
C817        C  0.78374380  0.21088628  0.03622192    -0.22800
H818        H  0.83226956  0.23862357  0.02791829     0.08300
C819        C  0.87019886  0.25566114  0.47249076     0.04700
C820        C  0.89452558  0.27662675  0.47264615    -0.20000
C821        C  0.91109053  0.28050505  0.99414650    -0.12300
C822        C  0.90360212  0.26194238  0.01425982     0.13400
C823        C  0.87913781  0.24102335  0.01433058    -0.22700
C824        C  0.85261093  0.25305955  0.45067766    -0.05800
H825        H  0.90019206  0.29067720  0.45709330     0.14900
C826        C  0.92076813  0.26318907  0.03553381    -0.16000
H827        H  0.87299214  0.22720882  0.03039140     0.09200
H828        H  0.77020578  0.21100733  0.02341274     0.07100
H829        H  0.79631005  0.22915002  0.04640289     0.08300
H830        H  0.77429913  0.19729580  0.05347086     0.07300
H831        H  0.85164328  0.19033930  0.47644659     0.02200
H832        H  0.84874979  0.20480060  0.44656218     0.02700
H833        H  0.82627635  0.17259961  0.45220305     0.06200
H834        H  0.86177330  0.26879401  0.43594524     0.05200
H835        H  0.83758966  0.25200963  0.46139765    -0.00600
H836        H  0.84468557  0.23624316  0.43785086     0.00900
H837        H  0.91554528  0.26462802  0.05728764     0.04500
H838        H  0.94020006  0.27861701  0.03189845     0.06500
H839        H  0.91943224  0.24627232  0.03396908     0.07400
C840        C  0.54187104  0.28756117  0.48472088    -0.22300
C841        C  0.52193541  0.28270383  0.99921380     0.09700
C842        C  0.50728514  0.26100446  0.01490858     0.10100
C843        C  0.51304542  0.24461281  0.01499177    -0.17200
C844        C  0.53305220  0.24941330  0.99964493    -0.27600
C845        C  0.54789187  0.27134119  0.48487176     0.18400
C846        C  0.51745245  0.30115919  0.99989442     0.12400
C847        C  0.48560328  0.25519801  0.03151454    -0.12000
H848        H  0.50165767  0.22777244  0.02682650     0.12700
C849        C  0.57061873  0.27889419  0.46916605    -0.22800
H850        H  0.55313738  0.30447720  0.47298353     0.08300
C851        C  0.52866634  0.31983560  0.02058018     0.04700
C852        C  0.52346755  0.33666217  0.02096143    -0.20000
C853        C  0.50719471  0.33506781  0.50234291    -0.12300
C854        C  0.49551356  0.31587016  0.48201553     0.13400
C855        C  0.50116182  0.29935407  0.48136701    -0.22700
C856        C  0.54617499  0.32202102  0.04213113    -0.05800
H857        H  0.53250532  0.35136266  0.03649122     0.14900
C858        C  0.47625142  0.31145274  0.46160686    -0.16000
H859        H  0.49231404  0.28461826  0.46587133     0.09200
H860        H  0.58638161  0.29728657  0.47663674     0.07100
H861        H  0.56796813  0.27974912  0.44609527     0.08300
H862        H  0.57566332  0.26651508  0.47255551     0.07300
H863        H  0.47229977  0.25425348  0.01696148     0.02200
H864        H  0.49170034  0.26961562  0.04773224     0.02700
H865        H  0.47606828  0.23741216  0.04256431     0.06200
H866        H  0.55336197  0.33772898  0.05678176     0.05200
H867        H  0.56194550  0.32469696  0.03115090    -0.00600
H868        H  0.53673780  0.30515339  0.05500637     0.00900
H869        H  0.48314167  0.31443989  0.43955668     0.04500
H870        H  0.47057396  0.32321533  0.46581231     0.06500
H871        H  0.45954585  0.29228978  0.46356614     0.07400
C872        C  0.66965824  0.13461724  0.06857257    -0.22300
C873        C  0.67217141  0.12313104  0.09114511     0.09700
C874        C  0.69147720  0.12113964  0.09133252     0.10100
C875        C  0.70744168  0.12998914  0.06817464    -0.17200
C876        C  0.70434404  0.14065509  0.04501980    -0.27600
C877        C  0.68580117  0.14387412  0.04570478     0.18400
C878        C  0.65381901  0.11281889  0.11388331     0.12400
C879        C  0.69507102  0.10957427  0.11580848    -0.12000
H880        H  0.72186632  0.12783762  0.06768888     0.12700
C881        C  0.68286308  0.15753459  0.02326987    -0.22800
H882        H  0.65499678  0.13644135  0.06888230     0.08300
C883        C  0.65402423  0.12791777  0.13439078     0.04700
C884        C  0.63511567  0.11744045  0.15425841    -0.20000
C885        C  0.61595038  0.09225927  0.15389954    -0.12300
C886        C  0.61562151  0.07718551  0.13294995     0.13400
C887        C  0.63483219  0.08769437  0.11346172    -0.22700
C888        C  0.67432462  0.15499320  0.13547325    -0.05800
H889        H  0.63555523  0.12896766  0.17043040     0.14900
C890        C  0.59496342  0.05031103  0.12944982    -0.16000
H891        H  0.63460636  0.07634232  0.09718726     0.09200
H892        H  0.68327131  0.17239600  0.03346722     0.07100
H893        H  0.66499959  0.14486779  0.01226791     0.08300
H894        H  0.69764180  0.16626262  0.00730034     0.07300
H895        H  0.67872929  0.09027531  0.11806746     0.02200
H896        H  0.69783824  0.11971706  0.13568263     0.02700
H897        H  0.71127756  0.10980905  0.11269720     0.06200
H898        H  0.67195557  0.16400872  0.15331210     0.05200
H899        H  0.67462462  0.16362373  0.11547714    -0.00600
H900        H  0.69217960  0.15826273  0.13830855     0.00900
H901        H  0.58801127  0.04660413  0.10728552     0.04500
H902        H  0.57910975  0.04379870  0.14325711     0.06500
H903        H  0.60177041  0.03948592  0.13385582     0.07400
C904        C  0.70093170  0.14375271  0.39544141    -0.22300
C905        C  0.68028853  0.11932083  0.39341953     0.09700
C906        C  0.67497379  0.10287877  0.41523486     0.10100
C907        C  0.68998869  0.11155069  0.43934605    -0.17200
C908        C  0.70995922  0.13631146  0.44220862    -0.27600
C909        C  0.71565938  0.15268388  0.41985139     0.18400
C910        C  0.66288554  0.11197992  0.36994678     0.12400
C911        C  0.65292422  0.07645367  0.41351000    -0.12000
H912        H  0.68562449  0.09910589  0.45654426     0.12700
C913        C  0.73570602  0.17984453  0.42152400    -0.22800
H914        H  0.70465616  0.15625870  0.37858501     0.08300
C915        C  0.64523782  0.11628845  0.37149927     0.04700
C916        C  0.62834399  0.10822938  0.34933241    -0.20000
C917        C  0.62863105  0.09584600  0.32580304    -0.12300
C918        C  0.64694659  0.09227228  0.32386622     0.13400
C919        C  0.66364107  0.10012425  0.34627927    -0.22700
C920        C  0.64388659  0.12885196  0.39688694    -0.05800
H921        H  0.61438111  0.11099663  0.35078657     0.14900
C922        C  0.65025471  0.08123163  0.29832401    -0.16000
H923        H  0.67750512  0.09719026  0.34520247     0.09200
H924        H  0.72773802  0.18971788  0.41793728     0.07100
H925        H  0.74944239  0.18516186  0.40478090     0.08300
H926        H  0.74524119  0.18616854  0.44222174     0.07300
H927        H  0.65437812  0.06768831  0.39462725     0.02200
H928        H  0.63601277  0.07515782  0.41174459     0.02700
H929        H  0.65131310  0.06614576  0.43257861     0.06200
H930        H  0.62872507  0.13040774  0.39485241     0.05200
H931        H  0.66127186  0.14756001  0.39916828    -0.00600
H932        H  0.64077575  0.11831727  0.41636320     0.00900
H933        H  0.66949079  0.09378796  0.29096029     0.04500
H934        H  0.63864867  0.07830082  0.28002201     0.06500
H935        H  0.64633702  0.06355090  0.30421326     0.07400
C936        C  0.54709645  0.18746451  0.09996207    -0.22300
C937        C  0.53122423  0.16187478  0.09894615     0.09700
C938        C  0.51693184  0.14979642  0.07449130     0.10100
C939        C  0.51943151  0.16360242  0.05111987    -0.17200
C940        C  0.53580896  0.18922052  0.05163849    -0.27600
C941        C  0.54976524  0.20139323  0.07648274     0.18400
C942        C  0.53086704  0.14784062  0.12287186     0.12400
C943        C  0.49939260  0.12231680  0.07289596    -0.12000
H944        H  0.50868813  0.15431306  0.03213341     0.12700
C945        C  0.56852985  0.22874434  0.07865070    -0.22800
H946        H  0.55810665  0.19658309  0.11883755     0.08300
C947        C  0.54770670  0.14247958  0.12435886     0.04700
C948        C  0.54555107  0.12745562  0.14611252    -0.20000
C949        C  0.52667183  0.11726964  0.16616862    -0.12300
C950        C  0.51007254  0.12318008  0.16492867     0.13400
C951        C  0.51249866  0.13847289  0.14326472    -0.22700
C952        C  0.56766253  0.15227342  0.10265006    -0.05800
H953        H  0.55845708  0.12325493  0.14712453     0.14900
C954        C  0.49012596  0.11414891  0.18643169    -0.16000
H955        H  0.49970169  0.14279503  0.14182451     0.09200
H956        H  0.58660729  0.23328187  0.08423765     0.07100
H957        H  0.56312062  0.23590326  0.09557520     0.08300
H958        H  0.57093361  0.23836970  0.05871587     0.07300
H959        H  0.48539482  0.11535329  0.08974796     0.02200
H960        H  0.50949780  0.11452613  0.07585064     0.02700
H961        H  0.48976204  0.11582841  0.05210946     0.06200
H962        H  0.57920252  0.14621841  0.10680538     0.05200
H963        H  0.57966965  0.17254824  0.10308142    -0.00600
H964        H  0.55945492  0.14572831  0.08117242     0.00900
H965        H  0.48123065  0.12324811  0.18407620     0.04500
H966        H  0.49780220  0.11801192  0.20824637     0.06500
H967        H  0.47560978  0.09433901  0.18332828     0.07400
C968        C  0.56266151  0.16047019  0.36250535    -0.22300
C969        C  0.54243536  0.15283310  0.37929851     0.09700
C970        C  0.52030680  0.12929628  0.37549689     0.10100
C971        C  0.51888644  0.11378424  0.35482191    -0.17200
C972        C  0.53912004  0.12116301  0.33784853    -0.27600
C973        C  0.56145107  0.14493495  0.34192804     0.18400
C974        C  0.54540726  0.16877339  0.40269180     0.12400
C975        C  0.49835451  0.12035938  0.39372898    -0.12000
H976        H  0.50186652  0.09564516  0.35232344     0.12700
C977        C  0.58418144  0.15432881  0.32501887    -0.22800
H978        H  0.57963763  0.17854300  0.36601266     0.08300
C979        C  0.55598016  0.16937891  0.42858052     0.04700
C980        C  0.55595625  0.18234646  0.45147300    -0.20000
C981        C  0.54531768  0.19454604  0.44934061    -0.12300
C982        C  0.53586777  0.19499561  0.42270420     0.13400
C983        C  0.53604839  0.18200609  0.39969723    -0.22700
C984        C  0.56646753  0.15555375  0.43237446    -0.05800
H985        H  0.56373237  0.18231950  0.47148617     0.14900
C986        C  0.52468077  0.20810092  0.41837530    -0.16000
H987        H  0.52814220  0.18146637  0.37950939     0.09200
H988        H  0.59018164  0.14272078  0.32879069     0.07100
H989        H  0.59963708  0.17331413  0.33117336     0.08300
H990        H  0.58052060  0.15443602  0.30210329     0.07300
H991        H  0.49255460  0.13221922  0.39077102     0.02200
H992        H  0.50306142  0.12081638  0.41638701     0.02700
H993        H  0.48258752  0.10132646  0.38823917     0.06200
H994        H  0.57358966  0.15759734  0.45422001     0.05200
H995        H  0.58181804  0.16251835  0.41740293    -0.00600
H996        H  0.55207582  0.13579772  0.42821989     0.00900
H997        H  0.51770641  0.20577897  0.39638554     0.04500
H998        H  0.53866263  0.22798370  0.42219910     0.06500
H999        H  0.50902187  0.20073391  0.43299094     0.07400
C1000       C  0.23071028  0.86243334  0.48317640    -0.22300
C1001       C  0.22447923  0.84453444  0.00259500     0.09700
C1002       C  0.24178915  0.84913431  0.02312175     0.10100
C1003       C  0.26528157  0.87136746  0.02268426    -0.17200
C1004       C  0.27206365  0.88893080  0.00182958    -0.27600
C1005       C  0.25426837  0.88478088  0.48264909     0.18400
C1006       C  0.20049134  0.82031205  0.00058208     0.12400
C1007       C  0.23577067  0.83015993  0.04476566    -0.12000
H1008       H  0.27881332  0.87448952  0.03787299     0.12700
C1009       C  0.25916724  0.90339487  0.46112788    -0.22800
H1010       H  0.21717667  0.85875535  0.46761066     0.08300
C1011       C  0.18026901  0.81432705  0.01668348     0.04700
C1012       C  0.15890808  0.79010555  0.01662239    -0.20000
C1013       C  0.15747381  0.77183928  0.00090156    -0.12300
C1014       C  0.17802734  0.77812350  0.48535959     0.13400
C1015       C  0.19898857  0.80244693  0.48497943    -0.22700
C1016       C  0.18136266  0.83346463  0.03397570    -0.05800
H1017       H  0.14327941  0.78536709  0.02897978     0.14900
C1018       C  0.17945499  0.75972214  0.46985869    -0.16000
H1019       H  0.21486205  0.80725413  0.47307523     0.09200
H1020       H  0.24521080  0.90665842  0.46325765     0.07100
H1021       H  0.25795051  0.89638298  0.43942213     0.08300
H1022       H  0.27725865  0.92131846  0.46392415     0.07300
H1023       H  0.23090021  0.81337794  0.03386917     0.02200
H1024       H  0.22010099  0.82555406  0.05790673     0.02700
H1025       H  0.25148776  0.83671121  0.05916761     0.06200
H1026       H  0.16391041  0.82572124  0.04527164     0.05200
H1027       H  0.18499105  0.84819107  0.01982944    -0.00600
H1028       H  0.19623348  0.84145293  0.05002806     0.00900
H1029       H  0.18021099  0.76276975  0.44665785     0.04500
H1030       H  0.16413228  0.74052955  0.47445192     0.06500
H1031       H  0.19635084  0.76209764  0.47644459     0.07400
C1032       C  0.38721510  0.97865860  0.07668582    -0.22300
C1033       C  0.38012940  0.96246324  0.09914283     0.09700
C1034       C  0.35758649  0.93896753  0.09792164     0.10100
C1035       C  0.34308285  0.93168896  0.07339076    -0.17200
C1036       C  0.35072871  0.94739928  0.05006157    -0.27600
C1037       C  0.37281598  0.97150619  0.05210854     0.18400
C1038       C  0.39727449  0.97029398  0.12312572     0.12400
C1039       C  0.34909786  0.92154071  0.12232166    -0.12000
H1040       H  0.32612053  0.91332055  0.07207287     0.12700
C1041       C  0.38124980  0.99000236  0.02887331    -0.22800
H1042       H  0.40444284  0.99682701  0.07818508     0.08300
C1043       C  0.41534357  0.96652676  0.12258545     0.04700
C1044       C  0.43203038  0.97524085  0.14513176    -0.20000
C1045       C  0.43132805  0.98801872  0.16791365    -0.12300
C1046       C  0.41296509  0.99152964  0.16857380     0.13400
C1047       C  0.39610569  0.98254506  0.14607721    -0.22700
C1048       C  0.41720205  0.95360438  0.09802787    -0.05800
H1049       H  0.44606454  0.97254468  0.14462087     0.14900
C1050       C  0.41055269  0.00406565  0.19313493    -0.16000
H1051       H  0.38205961  0.98523829  0.14620758     0.09200
H1052       H  0.38657791  0.98470276  0.00984092     0.07100
H1053       H  0.39751646  0.00843463  0.03549566     0.08300
H1054       H  0.36625461  0.99148940  0.52428926     0.07300
H1055       H  0.34743305  0.92972110  0.14166111     0.02200
H1056       H  0.36247546  0.91776365  0.12641423     0.02700
H1057       H  0.33099648  0.90387348  0.11791859     0.06200
H1058       H  0.43242136  0.95223693  0.10099635     0.05200
H1059       H  0.42055567  0.96376701  0.07814090    -0.00600
H1060       H  0.39991907  0.93481812  0.09583063     0.00900
H1061       H  0.42690279  0.02346094  0.19444736     0.04500
H1062       H  0.40855505  0.99463028  0.21320556     0.06500
H1063       H  0.39427540  0.00382411  0.19075925     0.07400
C1064       C  0.36316275  0.93314938  0.40549485    -0.22300
C1065       C  0.38115357  0.95826803  0.40179334     0.09700
C1066       C  0.38203724  0.97503475  0.42013177     0.10100
C1067       C  0.36553916  0.96625107  0.44267704    -0.17200
C1068       C  0.34819192  0.94109054  0.44737545    -0.27600
C1069       C  0.34673422  0.92422441  0.42825737     0.18400
C1070       C  0.39983347  0.96676367  0.37960061     0.12400
C1071       C  0.40089858  0.00217688  0.41640924    -0.12000
H1072       H  0.36666719  0.97913574  0.45731437     0.12700
C1073       C  0.32941052  0.89688496  0.43184569    -0.22800
H1074       H  0.36262934  0.92040819  0.39120284     0.08300
C1075       C  0.42080079  0.96784094  0.38444466     0.04700
C1076       C  0.43879302  0.97742537  0.36340322    -0.20000
C1077       C  0.43636968  0.98623325  0.33792438    -0.12300
C1078       C  0.41492107  0.98438867  0.33274376     0.13400
C1079       C  0.39703845  0.97486877  0.35385054    -0.22700
C1080       C  0.42443251  0.95947119  0.41208090    -0.05800
H1081       H  0.45514011  0.97867599  0.36714818     0.14900
C1082       C  0.40973595  0.99144194  0.30506925    -0.16000
H1083       H  0.38075107  0.97374980  0.35021877     0.09200
H1084       H  0.34006279  0.88955403  0.43312299     0.07100
H1085       H  0.31693275  0.88851246  0.41321401     0.08300
H1086       H  0.31815348  0.89097179  0.45117865     0.07300
H1087       H  0.39853791  0.00764453  0.39532255     0.02200
H1088       H  0.41955915  0.00709289  0.41795333     0.02700
H1089       H  0.39922954  0.01272305  0.43285803     0.06200
H1090       H  0.44198643  0.96188474  0.41251901     0.05200
H1091       H  0.40931289  0.93981064  0.41524048    -0.00600
H1092       H  0.42461277  0.97021064  0.42990287     0.00900
H1093       H  0.39176699  0.97567573  0.29658547     0.04500
H1094       H  0.42339605  0.99657823  0.28842630     0.06500
H1095       H  0.40896049  0.00695118  0.30871634     0.07400
C1096       C  0.58472397  0.84827363  0.01922740    -0.22300
C1097       C  0.57723137  0.83115635  0.49659928     0.09700
C1098       C  0.56093052  0.82795966  0.47550845     0.10100
C1099       C  0.55240080  0.84204180  0.47669738    -0.17200
C1100       C  0.55959185  0.85902259  0.99940616    -0.27600
C1101       C  0.57657576  0.86273424  0.02015705     0.18400
C1102       C  0.58552394  0.81570122  0.49714963     0.12400
C1103       C  0.55238832  0.80952450  0.45193482    -0.12000
H1104       H  0.53944926  0.83922227  0.46081050     0.12700
C1105       C  0.58737159  0.88228602  0.04280383    -0.22800
H1106       H  0.59738506  0.85070046  0.03528784     0.08300
C1107       C  0.60768829  0.82317049  0.48455485     0.04700
C1108       C  0.61434228  0.80743742  0.48523693    -0.20000
C1109       C  0.59924522  0.78448568  0.49818628    -0.12300
C1110       C  0.57639577  0.77649642  0.01071723     0.13400
C1111       C  0.57005956  0.79242364  0.01051679    -0.22700
C1112       C  0.62415697  0.84763196  0.47036561    -0.05800
H1113       H  0.63149080  0.81314483  0.47590104     0.14900
C1114       C  0.55773677  0.75113814  0.02208062    -0.16000
H1115       H  0.55268288  0.78653149  0.01935939     0.09200
H1116       H  0.60765887  0.89373359  0.04189058     0.07100
H1117       H  0.58133910  0.87365969  0.06400767     0.08300
H1118       H  0.58246230  0.89484762  0.04026229     0.07300
H1119       H  0.54255673  0.79092600  0.46093322     0.02200
H1120       H  0.56837307  0.81387752  0.43966146     0.02700
H1121       H  0.53976424  0.80947631  0.43708083     0.06200
H1122       H  0.64073786  0.85056918  0.46145449     0.05200
H1123       H  0.63013434  0.86242808  0.48599257    -0.00600
H1124       H  0.61414960  0.84881921  0.45276147     0.00900
H1125       H  0.55492125  0.75223980  0.04504029     0.04500
H1126       H  0.56286779  0.73877941  0.01911146     0.06500
H1127       H  0.54006352  0.74260330  0.01075463     0.07400
C1128       C  0.50180493  0.90575071  0.07620880    -0.22300
C1129       C  0.51877188  0.91480932  0.09842236     0.09700
C1130       C  0.53637177  0.91040455  0.09858953     0.10100
C1131       C  0.53822671  0.89914553  0.07493753    -0.17200
C1132       C  0.52288005  0.89234516  0.05120558    -0.27600
C1133       C  0.50348859  0.89438836  0.05258620     0.18400
C1134       C  0.51941166  0.93105919  0.11964461     0.12400
C1135       C  0.55378354  0.91851674  0.12319934    -0.12000
H1136       H  0.55272752  0.89712037  0.07428775     0.12700
C1137       C  0.48447282  0.88469506  0.02941206    -0.22800
H1138       H  0.48792151  0.90866659  0.07677030     0.08300
C1139       C  0.53221226  0.95619416  0.11417096     0.04700
C1140       C  0.53287672  0.97123576  0.13494425    -0.20000
C1141       C  0.52099549  0.96168393  0.16096355    -0.12300
C1142       C  0.50860474  0.93653813  0.16666846     0.13400
C1143       C  0.50763774  0.92145682  0.14563430    -0.22700
C1144       C  0.54535993  0.96714774  0.08651729    -0.05800
H1145       H  0.54270397  0.99056965  0.13086921     0.14900
C1146       C  0.49740527  0.92512104  0.19499088    -0.16000
H1147       H  0.49820567  0.90219962  0.14979924     0.09200
H1148       H  0.49261019  0.89575156  0.00993438     0.07100
H1149       H  0.46931285  0.88542173  0.03574579     0.08300
H1150       H  0.47644775  0.86533007  0.02473903     0.07300
H1151       H  0.54326596  0.90943184  0.14286013     0.02200
H1152       H  0.56485449  0.93862159  0.12601832     0.02700
H1153       H  0.56649622  0.91375573  0.11988623     0.06200
H1154       H  0.55468209  0.98713167  0.08586350     0.05200
H1155       H  0.53208687  0.95848399  0.06863213    -0.00600
H1156       H  0.55941385  0.96410370  0.08361922     0.00900
H1157       H  0.47735076  0.91105968  0.19240973     0.04500
H1158       H  0.50072659  0.93839173  0.21137983     0.06500
H1159       H  0.50542987  0.91620092  0.20315405     0.07400
C1160       C  0.51276450  0.94230672  0.37614398    -0.22300
C1161       C  0.53230374  0.94093605  0.37759846     0.09700
C1162       C  0.55125781  0.95333061  0.35757385     0.10100
C1163       C  0.55023952  0.96693382  0.33636830    -0.17200
C1164       C  0.53092230  0.96882283  0.33505469    -0.27600
C1165       C  0.51209212  0.95662923  0.35566385     0.18400
C1166       C  0.53373689  0.92850494  0.40205997     0.12400
C1167       C  0.57270118  0.95248127  0.35891521    -0.12000
H1168       H  0.56465184  0.97609309  0.32070527     0.12700
C1169       C  0.49183917  0.95928663  0.35821395    -0.22800
H1170       H  0.49855957  0.93312024  0.39209288     0.08300
C1171       C  0.54262807  0.94055895  0.42844883     0.04700
C1172       C  0.54309094  0.92810203  0.45147226    -0.20000
C1173       C  0.53485044  0.90384651  0.44880874    -0.12300
C1174       C  0.52582076  0.89167978  0.42229237     0.13400
C1175       C  0.52564266  0.90434997  0.39910873    -0.22700
C1176       C  0.55173885  0.96662576  0.43227072    -0.05800
H1177       H  0.55003048  0.93742251  0.47175794     0.14900
C1178       C  0.51516788  0.86521493  0.41785366    -0.16000
H1179       H  0.51862399  0.89517165  0.37876366     0.09200
H1180       H  0.49095267  0.96413294  0.38044239     0.07100
H1181       H  0.47404275  0.94169808  0.35265788     0.08300
H1182       H  0.49454276  0.97397638  0.34503575     0.07300
H1183       H  0.56616170  0.93329911  0.35670417     0.02200
H1184       H  0.58234346  0.95999363  0.37956826     0.02700
H1185       H  0.58605539  0.96335585  0.34174510     0.06200
H1186       H  0.55838916  0.97336884  0.45423212     0.05200
H1187       H  0.53672844  0.96803886  0.42780322    -0.00600
H1188       H  0.56711313  0.97864073  0.41752248     0.00900
H1189       H  0.49620438  0.85512162  0.40948497     0.04500
H1190       H  0.51414009  0.85594244  0.43753307     0.06500
H1191       H  0.52636716  0.86383315  0.40218458     0.07400
C1192       C  0.54871173  0.87219241  0.49910271     0.80400
N1193       N  0.54625505  0.88069419  0.97519019    -0.77900
C1194       C  0.53561038  0.89211928  0.97508657     0.82900
N1195       N  0.52770543  0.89519176  0.99976144    -0.77800
C1196       C  0.52957864  0.88638148  0.52388772     0.83000
N1197       N  0.54024319  0.87491243  0.52376961    -0.79500
C1198       C  0.29825799  0.91005730  0.50075664     0.80400
N1199       N  0.31150115  0.92030593  0.52506054    -0.77900
C1200       C  0.33611650  0.93767611  0.52411395     0.82900
N1201       N  0.34745966  0.94399160  0.99818426    -0.77800
C1202       C  0.33466189  0.93362509  0.97379975     0.83000
N1203       N  0.30998295  0.91658747  0.97479773    -0.79500
C1204       C  0.53148787  0.98300125  0.81175514     0.42700
N1205       N  0.51928106  0.99394915  0.77782522     0.01500
C1206       C  0.58997862  0.09483354  0.69181176    -0.06300
H1207       H  0.60370543  0.11549755  0.79902519     0.07000
C1208       C  0.51315430  0.08199014  0.80475833    -0.06700
Co1209     Co  0.56078139  0.03497691  0.74435952     0.74200
N1210       N  0.58208654  0.08181028  0.77499545    -0.25900
Co1211     Co  0.56080491  0.08537683  0.74721112     0.74100
C1212       C  0.53630254  0.10354491  0.81604725     0.42800
N1213       N  0.48093504  0.02044087  0.78426742     0.01200
N1214       N  0.54360209  0.08902730  0.78075012     0.01300
N1215       N  0.58985472  0.06180163  0.69123932    -0.46700
H1216       H  0.57201633  0.01215100  0.80018713     0.07000
N1217       N  0.58185615  0.06246953  0.77402251     0.01600
N1218       N  0.53895798  0.08826401  0.71944779     0.01300
C1219       C  0.52637047  0.10143659  0.68868599     0.42900
N1220       N  0.48070903  0.00110354  0.78273136    -0.25300
C1221       C  0.54633784  0.00031908  0.69317153    -0.06200
N1222       N  0.51140012  0.97800549  0.79862627    -0.46400
N1223       N  0.54657735  0.10516255  0.69984908    -0.46600
C1224       C  0.52359683  0.97872275  0.68186333     0.42700
N1225       N  0.57723295  0.06120091  0.71283293     0.01500
N1226       N  0.47682027  0.00055280  0.72147421    -0.25300
N1227       N  0.54336024  0.00879440  0.77603886    -0.25800
N1228       N  0.47661112  0.01963318  0.72301164     0.01200
H1229       H  0.45657275  0.96772473  0.69588378     0.07100
H1230       H  0.48597522  0.07137189  0.70058812     0.07100
N1231       N  0.57716537  0.08037005  0.71380000    -0.25900
N1232       N  0.51955487  0.07442224  0.78294967    -0.25500
N1233       N  0.51526311  0.99290571  0.71630071     0.01500
C1234       C  0.60941390  0.08592833  0.80475155     0.42900
C1235       C  0.46628556  0.98550104  0.80327632    -0.06700
N1236       N  0.51493334  0.07361035  0.72185470    -0.25500
H1237       H  0.49454409  0.07416843  0.81068011     0.07100
N1238       N  0.59786477  0.06412613  0.79157288    -0.46700
H1239       H  0.46144465  0.96747086  0.80633858     0.07100
C1240       C  0.45030732  0.99693527  0.69072243     0.42800
C1241       C  0.55275260  0.00322169  0.79654044    -0.06200
Co1242     Co  0.49768567  0.99661443  0.74952854     0.73800
N1243       N  0.46681635  0.01878986  0.80471115    -0.46400
C1244       C  0.59803534  0.08223767  0.67666920     0.43000
N1245       N  0.50502340  0.97508553  0.69716353    -0.46400
Co1246     Co  0.49768468  0.04705092  0.75309447     0.73900
C1247       C  0.50529196  0.08025062  0.70309694    -0.06700
C1248       C  0.59878517  0.09761915  0.79420095    -0.06300
N1249       N  0.53935181  0.00763981  0.71460139    -0.25800
N1250       N  0.55428257  0.10671457  0.79998120    -0.46600
H1251       H  0.59374723  0.11226491  0.68749286     0.07100
C1252       C  0.46091750  0.98526267  0.70138627    -0.06700
Cl1253     Cl  0.52922940  0.04100897  0.74853120    -0.49700
C1254       C  0.45707858  0.99728404  0.81763222     0.42800
H1255       H  0.56501891  0.00818794  0.68749653     0.07000
N1256       N  0.46094751  0.01818071  0.70499811    -0.46400
C1257       C  0.53738599  0.23076594  0.50081079     0.80400
N1258       N  0.54039174  0.22267094  0.97536005    -0.77900
C1259       C  0.54266574  0.20436555  0.97544727     0.82900
N1260       N  0.54168353  0.19412368  0.50101041    -0.77800
C1261       C  0.53863296  0.20195919  0.52581994     0.83000
N1262       N  0.53606480  0.22005500  0.52564753    -0.79500
C1263       C  0.75807110  0.16662369  0.49800566     0.80400
N1264       N  0.74717160  0.15813021  0.97277210    -0.77900
C1265       C  0.72245441  0.14429798  0.97042236     0.82900
N1266       N  0.70864928  0.13861260  0.49356572    -0.77800
C1267       C  0.71948639  0.14675580  0.51935091     0.83000
N1268       N  0.74417969  0.16059039  0.52156184    -0.79500
C1269       C  0.05117916  0.58906615  0.82142037     0.42700
N1270       N  0.05604876  0.57412746  0.78462181     0.01500
C1271       C  0.96837599  0.48784494  0.69066168    -0.06300
H1272       H  0.94975066  0.45933149  0.79533555     0.07000
C1273       C  0.03186040  0.46906473  0.79536026    -0.06700
Co1274     Co  0.01048215  0.54302868  0.75016626     0.74200
N1275       N  0.97827480  0.49321692  0.77512680    -0.25900
Co1276     Co  0.99341429  0.48434678  0.74385410     0.74100
C1277       C  0.00736022  0.45115724  0.80673114     0.42800
N1278       N  0.07606720  0.53038678  0.78118307     0.01200
N1279       N  0.00562322  0.47177722  0.77409559     0.01300
N1280       N  0.97982053  0.52613336  0.69628027    -0.46700
H1281       H  0.01061815  0.57024330  0.81054651     0.07000
N1282       N  0.98521583  0.51574703  0.77769157     0.01600
N1283       N  0.00920026  0.47637793  0.71254918     0.01300
C1284       C  0.01436990  0.45977907  0.67779761     0.42900
N1285       N  0.08271776  0.55282590  0.78293889    -0.25300
C1286       C  0.03283413  0.58153134  0.70223863    -0.06200
N1287       N  0.06782867  0.58883482  0.80657258    -0.46400
N1288       N  0.99764208  0.46092807  0.69105975    -0.46600
C1289       C  0.05703875  0.59851579  0.68999226     0.42700
N1290       N  0.98900905  0.52056224  0.71647876     0.01500
N1291       N  0.08596000  0.55712813  0.72161516    -0.25300
N1292       N  0.03276879  0.56516328  0.78373436    -0.25800
N1293       N  0.07959978  0.53480970  0.71942749     0.01200
H1294       H  0.11172432  0.59048590  0.69905417     0.07100
H1295       H  0.05453396  0.47836972  0.69015117     0.07100
N1296       N  0.98254158  0.49824724  0.71382166    -0.25900
N1297       N  0.02892191  0.48082258  0.77534428    -0.25500
N1298       N  0.05909227  0.57862673  0.72307981     0.01500
C1299       C  0.95596799  0.49531420  0.80734500     0.42900
C1300       C  0.09729373  0.56395673  0.80559048    -0.06700
N1301       N  0.03237708  0.48504658  0.71435181    -0.25500
H1302       H  0.04901278  0.47242841  0.80068033     0.07100
N1303       N  0.97237633  0.51779496  0.79671309    -0.46700
H1304       H  0.10595702  0.58262334  0.81220766     0.07100
C1305       C  0.10684257  0.55510371  0.68744119     0.42800
C1306       C  0.02795001  0.57372570  0.80610499    -0.06200
Co1307     Co  0.07141475  0.56618977  0.75303564     0.73800
N1308       N  0.08544081  0.52529285  0.80178948    -0.46400
C1309       C  0.96667205  0.50653525  0.67894982     0.43000
N1310       N  0.07253172  0.59606704  0.70424476    -0.46400
Co1311     Co  0.05452969  0.50760168  0.74757407     0.73900
C1312       C  0.03730743  0.47541763  0.69340466    -0.06700
C1313       C  0.95985130  0.47888105  0.79327422    -0.06300
N1314       N  0.03588224  0.56988842  0.72234736    -0.25800
N1315       N  0.99205613  0.45390138  0.79243006    -0.46600
H1316       H  0.96010516  0.46942650  0.68337979     0.07100
C1317       C  0.10301160  0.57128224  0.70213721    -0.06700
Cl1318     Cl  0.03243385  0.52525803  0.74866995    -0.49700
C1319       C  0.09864535  0.54550783  0.81823489     0.42800
H1320       H  0.01586802  0.57861695  0.69708753     0.07000
N1321       N  0.09165471  0.53277348  0.69916901    -0.46400
C1322       C  0.23920993  0.57025362  0.50185690     0.80400
N1323       N  0.22762676  0.56906262  0.97723454    -0.77900
C1324       C  0.20932811  0.57140400  0.97816729     0.82900
N1325       N  0.20271387  0.57482668  0.50395336    -0.77800
C1326       C  0.21381075  0.57591023  0.52833551     0.83000
N1327       N  0.23202785  0.57345381  0.52722985    -0.79500
C1328       C  0.93506173  0.30496328  0.49521134     0.80400
N1329       N  0.94527306  0.31774614  0.97124104    -0.77900
C1330       C  0.96582180  0.34116312  0.97201194     0.82900
N1331       N  0.97563195  0.35201430  0.49734228    -0.77800
C1332       C  0.96547895  0.33969101  0.52180679     0.83000
N1333       N  0.94479565  0.31624888  0.52067313    -0.79500
C1334       C  0.83762031  0.49769323  0.49383635     0.80400
N1335       N  0.83989166  0.49007917  0.96831062    -0.77900
C1336       C  0.85397255  0.48234602  0.96546343     0.82900
N1337       N  0.86613293  0.48271024  0.48801893    -0.77800
C1338       C  0.86426279  0.49022279  0.51369928     0.83000
N1339       N  0.84973757  0.49741364  0.51653069    -0.79500
C1340       C  0.13472650  0.74667422  0.50271863     0.80400
N1341       N  0.12479179  0.73297612  0.97823022    -0.77900
C1342       C  0.10525499  0.70914726  0.97979938     0.82900
N1343       N  0.09569159  0.69901177  0.50556270    -0.77800
C1344       C  0.10475298  0.71244792  0.52973886     0.83000
N1345       N  0.12459515  0.73631377  0.52824910    -0.79500
C1346       C  0.62801874  0.58043386  0.68358399     0.42700
N1347       N  0.61182523  0.58708252  0.71760753     0.01500
C1348       C  0.51962680  0.50074907  0.80721407    -0.06300
H1349       H  0.49461177  0.48841655  0.69945736     0.07000
C1350       C  0.50801650  0.57015081  0.70542120    -0.06700
Co1351     Co  0.57727319  0.54170862  0.75105401     0.74200
N1352       N  0.52804209  0.51305993  0.72331915    -0.25900
Co1353     Co  0.51992837  0.52844323  0.75495144     0.74100
C1354       C  0.48901907  0.54609693  0.69363313     0.42800
N1355       N  0.57081772  0.61150242  0.72025259     0.01200
N1356       N  0.50909998  0.54247338  0.72518487     0.01300
N1357       N  0.55738819  0.51015233  0.80401674    -0.46700
H1358       H  0.60519388  0.53951724  0.69435796     0.07000
N1359       N  0.54986853  0.51799702  0.72204817     0.01600
N1360       N  0.51306912  0.54473979  0.78661630     0.01300
C1361       C  0.49875169  0.55086412  0.82290695     0.42900
N1362       N  0.59267307  0.61651389  0.71857146    -0.25300
C1363       C  0.61450281  0.56157901  0.80076268    -0.06200
N1364       N  0.62848065  0.59807643  0.69729300    -0.46400
N1365       N  0.49762022  0.53343699  0.80794737    -0.46600
C1366       C  0.63324797  0.58551782  0.81273850     0.42700
N1367       N  0.55343015  0.52056891  0.78363713     0.01500
N1368       N  0.59654913  0.61936154  0.78011420    -0.25300
N1369       N  0.60105981  0.56342128  0.71862524    -0.25800
N1370       N  0.57456736  0.61398279  0.78179911     0.01200
H1371       H  0.62998073  0.64416771  0.80393543     0.07100
H1372       H  0.52049137  0.59183472  0.81329240     0.07100
N1373       N  0.53150990  0.51532827  0.78496580    -0.25900
N1374       N  0.51949929  0.56607326  0.72469585    -0.25500
N1375       N  0.61500503  0.58963960  0.77926315     0.01500
C1376       C  0.52936811  0.49181805  0.68888868     0.42900
C1377       C  0.60457501  0.63132184  0.69647270    -0.06700
N1378       N  0.52366514  0.56840391  0.78619770    -0.25500
H1379       H  0.51191970  0.58762674  0.70100894     0.07100
N1380       N  0.55132157  0.50535978  0.70203587    -0.46700
H1381       H  0.62317913  0.63920511  0.69040168     0.07100
C1382       C  0.59488404  0.63995712  0.81519051     0.42800
C1383       C  0.60994485  0.55748964  0.69792978    -0.06200
Co1384     Co  0.60456187  0.60365787  0.74879306     0.73800
N1385       N  0.56705770  0.62245680  0.70034393    -0.46400
C1386       C  0.53706420  0.49778939  0.82009774     0.43000
N1387       N  0.63261577  0.60215780  0.79853757    -0.46400
Co1388     Co  0.54702074  0.59029928  0.75322011     0.73900
C1389       C  0.51569933  0.57401407  0.80844925    -0.06700
C1390       C  0.51371899  0.49659954  0.70307393    -0.06300
N1391       N  0.60429913  0.56595809  0.78005137    -0.25800
N1392       N  0.49047500  0.52975067  0.70722401    -0.46600
H1393       H  0.50102551  0.49292555  0.81323856     0.07100
C1394       C  0.61086407  0.63593567  0.80030148    -0.06700
Cl1395     Cl  0.56219895  0.56603868  0.75191000    -0.49700
C1396       C  0.58737040  0.63489114  0.68418573     0.42800
H1397       H  0.60992980  0.54396662  0.80608797     0.07000
N1398       N  0.57286589  0.62608606  0.80225879    -0.46400
C1399       C  0.50412769  0.35464251  0.00186854     0.80400
N1400       N  0.50600389  0.36628279  0.97758254    -0.77900
C1401       C  0.50572859  0.38587685  0.97866899     0.82900
N1402       N  0.50447958  0.39430986  0.00406518    -0.77800
C1403       C  0.50294690  0.38304846  0.52931969     0.83000
N1404       N  0.50308747  0.36340726  0.52836385    -0.79500
C1405       C  0.36064773  0.53312843  0.00331583     0.80400
N1406       N  0.36885521  0.53149631  0.52957253    -0.77900
C1407       C  0.38771231  0.52996864  0.53083270     0.82900
N1408       N  0.39890657  0.53104724  0.00615719    -0.77800
C1409       C  0.39117374  0.53292074  0.98057085     0.83000
N1410       N  0.37198351  0.53389257  0.97919968    -0.79500
C1411       C  0.74501578  0.56944698  0.99806933     0.80400
N1412       N  0.73628792  0.57180944  0.52227427    -0.77900
C1413       C  0.72358841  0.58118102  0.52204078     0.82900
N1414       N  0.71936097  0.58777263  0.99742019    -0.77800
C1415       C  0.72791222  0.58545032  0.97275634     0.83000
N1416       N  0.74043020  0.57587892  0.97305420    -0.79500
C1417       C  0.60743735  0.76896761  0.00007434     0.80400
N1418       N  0.61290127  0.76274349  0.97557071    -0.77900
C1419       C  0.61855014  0.74685732  0.97589255     0.82900
N1420       N  0.61816647  0.73697200  0.00088768    -0.77800
C1421       C  0.61346537  0.74374090  0.52463259     0.83000
N1422       N  0.60787625  0.75958657  0.52411624    -0.79500
C1423       C  0.42652232  0.55275636  0.91111745    -0.22300
C1424       C  0.43121655  0.53557263  0.90881276     0.09700
C1425       C  0.42174822  0.51702597  0.92922405     0.10100
C1426       C  0.40806559  0.51629839  0.95181520    -0.17200
C1427       C  0.40388222  0.53386785  0.95473361    -0.27600
C1428       C  0.41335554  0.55247953  0.93411744     0.18400
C1429       C  0.44799951  0.53868057  0.88644972     0.12400
C1430       C  0.42630065  0.49815755  0.92729210    -0.12000
H1431       H  0.40092434  0.50213602  0.96764721     0.12700
C1432       C  0.41157524  0.57327958  0.93646417    -0.22800
H1433       H  0.43423924  0.56722076  0.89558302     0.08300
C1434       C  0.44020772  0.53128205  0.85813825     0.04700
C1435       C  0.45713702  0.53503288  0.83785204    -0.20000
C1436       C  0.48154769  0.54597097  0.84539250    -0.12300
C1437       C  0.48910996  0.55262461  0.87391289     0.13400
C1438       C  0.47227266  0.54913488  0.89404619    -0.22700
C1439       C  0.41409173  0.51934704  0.84945705    -0.05800
H1440       H  0.45142257  0.52974559  0.81594943     0.14900
C1441       C  0.51452238  0.56287435  0.88398078    -0.16000
H1442       H  0.47806932  0.55447970  0.91592633     0.09200
H1443       H  0.40076264  0.57250262  0.91833605     0.07100
H1444       H  0.43024096  0.59090908  0.93578892     0.08300
H1445       H  0.40313579  0.57330997  0.95639776     0.07300
H1446       H  0.44622368  0.50714498  0.92870385     0.02200
H1447       H  0.41911409  0.48814605  0.90679547     0.02700
H1448       H  0.41716960  0.48465672  0.94470398     0.06200
H1449       H  0.41100174  0.51435573  0.82658146     0.05200
H1450       H  0.40942558  0.53203939  0.85344383    -0.00600
H1451       H  0.40164761  0.50242890  0.86189731     0.00900
H1452       H  0.52302911  0.58100574  0.89397872     0.04500
H1453       H  0.52658573  0.56498024  0.86667819     0.06500
H1454       H  0.51342646  0.55047787  0.90005049     0.07400
C1455       C  0.39746922  0.51608416  0.60549534    -0.22300
C1456       C  0.42279655  0.53390986  0.60834325     0.09700
C1457       C  0.43621198  0.55052222  0.58616960     0.10100
C1458       C  0.42396273  0.54889891  0.56148936    -0.17200
C1459       C  0.39866949  0.53086299  0.55822337    -0.27600
C1460       C  0.38521081  0.51409778  0.58046161     0.18400
C1461       C  0.43570636  0.53370564  0.63326742     0.12400
C1462       C  0.46358858  0.56958862  0.58825574    -0.12000
H1463       H  0.43427088  0.56165569  0.54441583     0.12700
C1464       C  0.35842682  0.49307484  0.57796406    -0.22800
H1465       H  0.38740952  0.50306719  0.62242090     0.08300
C1466       C  0.44279505  0.54994612  0.65619264     0.04700
C1467       C  0.45965287  0.55294771  0.67609415    -0.20000
C1468       C  0.46955541  0.54008683  0.67349645    -0.12300
C1469       C  0.46135130  0.52282772  0.65118955     0.13400
C1470       C  0.44422637  0.51965235  0.63162507    -0.22700
C1471       C  0.43293166  0.56439172  0.65924927    -0.05800
H1472       H  0.46549412  0.56578279  0.69347798     0.14900
C1473       C  0.47134620  0.50873341  0.64573684    -0.16000
H1474       H  0.43874993  0.50731419  0.61375428     0.09200
H1475       H  0.34789132  0.49541802  0.59361952     0.07100
H1476       H  0.35569460  0.47570653  0.58238704     0.08300
H1477       H  0.35096234  0.49127650  0.55652902     0.07300
H1478       H  0.47253970  0.56059864  0.59108674     0.02200
H1479       H  0.46825714  0.58191449  0.60658239     0.02700
H1480       H  0.47120705  0.58095512  0.56887266     0.06200
H1481       H  0.44027541  0.57618880  0.67851079     0.05200
H1482       H  0.41267937  0.55167823  0.66090394    -0.00600
H1483       H  0.43798239  0.57628365  0.64054669     0.00900
H1484       H  0.45643670  0.48887557  0.64783416     0.04500
H1485       H  0.48646272  0.51370393  0.66006784     0.06500
H1486       H  0.47865179  0.51236716  0.62382372     0.07400
C1487       C  0.63264551  0.71521572  0.92250301    -0.22300
C1488       C  0.61735958  0.71145369  0.90002815     0.09700
C1489       C  0.60501810  0.72202845  0.90098796     0.10100
C1490       C  0.60705628  0.73491806  0.92538168    -0.17200
C1491       C  0.62087499  0.73713521  0.94898900    -0.27600
C1492       C  0.63466512  0.72796667  0.94700407     0.18400
C1493       C  0.61213346  0.69375355  0.87765303     0.12400
C1494       C  0.58932262  0.71924820  0.87652497    -0.12000
H1495       H  0.59669740  0.74211853  0.92652891     0.12700
C1496       C  0.65152317  0.73137792  0.97041993    -0.22800
H1497       H  0.64215272  0.70709550  0.92137920     0.08300
C1498       C  0.62913189  0.69936745  0.85627338     0.04700
C1499       C  0.62341722  0.68118371  0.83656316    -0.20000
C1500       C  0.60119527  0.65757751  0.83806164    -0.12300
C1501       C  0.58466151  0.65181830  0.86027037     0.13400
C1502       C  0.59018246  0.67012863  0.87942957    -0.22700
C1503       C  0.65297829  0.72458331  0.85402214    -0.05800
H1504       H  0.63606849  0.68557610  0.81954882     0.14900
C1505       C  0.56167803  0.62640382  0.86548495    -0.16000
H1506       H  0.57755842  0.66576244  0.89649575     0.09200
H1507       H  0.66265719  0.72534529  0.96372099     0.07100
H1508       H  0.64083909  0.72034353  0.98915196     0.08300
H1509       H  0.66432998  0.75099337  0.97640953     0.07300
H1510       H  0.57404736  0.69965907  0.87292746     0.02200
H1511       H  0.60058788  0.72686632  0.85704046     0.02700
H1512       H  0.58130682  0.72903678  0.88054429     0.06200
H1513       H  0.66396721  0.72601977  0.83573180     0.05200
H1514       H  0.66400980  0.72910561  0.87359519    -0.00600
H1515       H  0.64931089  0.73815460  0.85118848     0.00900
H1516       H  0.56184123  0.62124350  0.88771609     0.04500
H1517       H  0.55995917  0.61228858  0.85182596     0.06500
H1518       H  0.54538056  0.62599694  0.86227387     0.07400
C1519       C  0.60859213  0.67153257  0.61595955    -0.22300
C1520       C  0.60156612  0.68662431  0.62080765     0.09700
C1521       C  0.58966224  0.68453628  0.64620953     0.10100
C1522       C  0.58518508  0.66736806  0.66644989    -0.17200
C1523       C  0.59215000  0.65212104  0.66165417    -0.27600
C1524       C  0.60365038  0.65396948  0.63580587     0.18400
C1525       C  0.60457869  0.70257434  0.59760661     0.12400
C1526       C  0.58155865  0.70028769  0.65176281    -0.12000
H1527       H  0.57629788  0.66591579  0.68617145     0.12700
C1528       C  0.60969886  0.63696019  0.62750398    -0.22800
H1529       H  0.61714326  0.67282894  0.59599861     0.08300
C1530       C  0.62634588  0.72643877  0.59405246     0.04700
C1531       C  0.62858568  0.74007328  0.57045838    -0.20000
C1532       C  0.60960905  0.73007985  0.55044860    -0.12300
C1533       C  0.58769974  0.70630229  0.55431446     0.13400
C1534       C  0.58546898  0.69288166  0.57793385    -0.22700
C1535       C  0.64723115  0.73720509  0.61482526    -0.05800
H1536       H  0.64537702  0.75826743  0.56719352     0.14900
C1537       C  0.56642171  0.69439331  0.53382523    -0.16000
H1538       H  0.56882220  0.67449466  0.58079800     0.09200
H1539       H  0.62983755  0.64751673  0.62556577     0.07100
H1540       H  0.60110520  0.62835298  0.60667224     0.08300
H1541       H  0.60279689  0.62187884  0.64263604     0.07300
H1542       H  0.56826942  0.69686310  0.63519494     0.02200
H1543       H  0.59762416  0.71985250  0.65138598     0.02700
H1544       H  0.57259758  0.69640731  0.67274198     0.06200
H1545       H  0.66291573  0.75605828  0.60890206     0.05200
H1546       H  0.65369916  0.72577795  0.61541468    -0.00600
H1547       H  0.64107479  0.73787758  0.63632119     0.00900
H1548       H  0.56282347  0.67746615  0.52502101     0.04500
H1549       H  0.56954147  0.70625310  0.51581661     0.06500
H1550       H  0.54985632  0.68953551  0.54518062     0.07400
C1551       C  0.70807128  0.61204720  0.92038078    -0.22300
C1552       C  0.69627684  0.59339665  0.89998376     0.09700
C1553       C  0.69840734  0.57421101  0.90115367     0.10100
C1554       C  0.71073312  0.57308813  0.92414120    -0.17200
C1555       C  0.72095695  0.59077284  0.94583772    -0.27600
C1556       C  0.72075325  0.61120616  0.94309061     0.18400
C1557       C  0.68043162  0.59338141  0.87867864     0.12400
C1558       C  0.68705950  0.55460186  0.87857450    -0.12000
H1559       H  0.71108795  0.55757431  0.92602311     0.12700
C1560       C  0.73378874  0.63248081  0.96356562    -0.22800
H1561       H  0.70692332  0.62708840  0.91890322     0.08300
C1562       C  0.65500673  0.57979943  0.88307284     0.04700
C1563       C  0.64021166  0.57832313  0.86133963    -0.20000
C1564       C  0.65033406  0.59063448  0.83568248    -0.12300
C1565       C  0.67600564  0.60531475  0.83184161     0.13400
C1566       C  0.69075347  0.60647089  0.85351400    -0.22700
C1567       C  0.64351404  0.56679407  0.91063754    -0.05800
H1568       H  0.62054913  0.56721932  0.86421725     0.14900
C1569       C  0.68841997  0.61898746  0.80487487    -0.16000
H1570       H  0.71035367  0.61707552  0.85044623     0.09200
H1571       H  0.72020450  0.63343685  0.97492961     0.07100
H1572       H  0.74633928  0.64969541  0.95164212     0.08300
H1573       H  0.74512623  0.63141854  0.97931341     0.07300
H1574       H  0.69495329  0.56301720  0.85761849     0.02200
H1575       H  0.66696446  0.54478361  0.87778228     0.02700
H1576       H  0.69050478  0.54099386  0.88266115     0.06200
H1577       H  0.62343129  0.55722112  0.91059696     0.05200
H1578       H  0.65164505  0.58023664  0.92838215    -0.00600
H1579       H  0.64676645  0.55302672  0.91441028     0.00900
H1580       H  0.70155939  0.63882350  0.80967695     0.04500
H1581       H  0.67555500  0.61644958  0.78839554     0.06500
H1582       H  0.69862712  0.61260503  0.79580516     0.07400
C1583       C  0.67127291  0.60329062  0.62013349    -0.22300
C1584       C  0.67666638  0.58659050  0.62017607     0.09700
C1585       C  0.66773472  0.56940246  0.64210900     0.10100
C1586       C  0.65270102  0.56861814  0.66291951    -0.17200
C1587       C  0.64593818  0.58433192  0.66215344    -0.27600
C1588       C  0.65573959  0.60223263  0.64054377     0.18400
C1589       C  0.68895798  0.58533231  0.59520992     0.12400
C1590       C  0.67338627  0.55133470  0.64297639    -0.12000
H1591       H  0.64584265  0.55524650  0.67964212     0.12700
C1592       C  0.64932847  0.61955528  0.63684493    -0.22800
H1593       H  0.67814027  0.61638312  0.60304114     0.08300
C1594       C  0.67564290  0.57355149  0.57007981     0.04700
C1595       C  0.68759893  0.57241720  0.54683709    -0.20000
C1596       C  0.71254294  0.58260246  0.54807716    -0.12300
C1597       C  0.72594410  0.59441541  0.57333739     0.13400
C1598       C  0.71385465  0.59544664  0.59670986    -0.22700
C1599       C  0.64869369  0.56184809  0.56791540    -0.05800
H1600       H  0.67733279  0.56335854  0.52751907     0.14900
C1601       C  0.75303010  0.60699668  0.57615603    -0.16000
H1602       H  0.72397474  0.60449085  0.61610356     0.09200
H1603       H  0.64184894  0.61732765  0.61516250     0.07100
H1604       H  0.66606833  0.63865302  0.63946492     0.08300
H1605       H  0.63537677  0.61650523  0.65174701     0.07300
H1606       H  0.69347111  0.56123396  0.64461267     0.02200
H1607       H  0.66647613  0.53999388  0.62335767     0.02700
H1608       H  0.66471326  0.53891791  0.66142181     0.06200
H1609       H  0.64099279  0.55295598  0.54693536     0.05200
H1610       H  0.64564419  0.57587343  0.57082345    -0.00600
H1611       H  0.63858577  0.54768778  0.58450555     0.00900
H1612       H  0.76245784  0.62642341  0.58219930     0.04500
H1613       H  0.76154835  0.60685748  0.55632491     0.06500
H1614       H  0.75630554  0.59800708  0.59298791     0.07400
C1615       C  0.50053460  0.40711230  0.90682737    -0.22300
C1616       C  0.52084478  0.43178403  0.90813336     0.09700
C1617       C  0.53665507  0.44085275  0.93181650     0.10100
C1618       C  0.53136082  0.42509229  0.95419483    -0.17200
C1619       C  0.51071306  0.40051246  0.95332637    -0.27600
C1620       C  0.49513764  0.39128637  0.92928976     0.18400
C1621       C  0.52463311  0.44818166  0.88514355     0.12400
C1622       C  0.55901376  0.46714190  0.93349161    -0.12000
H1623       H  0.54329036  0.43202893  0.97265295     0.12700
C1624       C  0.47218315  0.36538419  0.92713558    -0.22800
H1625       H  0.48845336  0.40036074  0.88852512     0.08300
C1626       C  0.53716408  0.45057254  0.86022506     0.04700
C1627       C  0.54113206  0.46717230  0.83954281    -0.20000
C1628       C  0.53277421  0.48133218  0.84326409    -0.12300
C1629       C  0.52051139  0.47914521  0.86858692     0.13400
C1630       C  0.51627846  0.46225241  0.88900721    -0.22700
C1631       C  0.54637666  0.43568078  0.85559135    -0.05800
H1632       H  0.55056273  0.46888699  0.82018835     0.14900
C1633       C  0.51272638  0.49498671  0.87566042    -0.16000
H1634       H  0.50698386  0.46050998  0.90851248     0.09200
H1635       H  0.47366771  0.35603529  0.90893299     0.07100
H1636       H  0.45620546  0.36546745  0.92361800     0.08300
H1637       H  0.46853580  0.35467504  0.94650755     0.07300
H1638       H  0.55351398  0.47938117  0.93276744     0.02200
H1639       H  0.57126542  0.47129424  0.91535894     0.02700
H1640       H  0.56951602  0.47109366  0.95341525     0.06200
H1641       H  0.55589316  0.43986368  0.83494858     0.05200
H1642       H  0.53077082  0.41592780  0.85577066    -0.00600
H1643       H  0.55947057  0.43963976  0.87271883     0.00900
H1644       H  0.49245245  0.48351690  0.87674428     0.04500
H1645       H  0.51928480  0.50987161  0.86034095     0.06500
H1646       H  0.52043946  0.50388653  0.89663454     0.07400
C1647       C  0.50688166  0.45421191  0.62102781    -0.22300
C1648       C  0.51122304  0.43720452  0.62721278     0.09700
C1649       C  0.52073522  0.43765581  0.65391010     0.10100
C1650       C  0.52607585  0.45550620  0.67384515    -0.17200
C1651       C  0.52220966  0.47289968  0.66749553    -0.27600
C1652       C  0.51253171  0.47229291  0.64072315     0.18400
C1653       C  0.50886956  0.42144936  0.60400561     0.12400
C1654       C  0.52560840  0.41958426  0.66106754    -0.12000
H1655       H  0.53355753  0.45607720  0.69437310     0.12700
C1656       C  0.50932330  0.49115792  0.63143529    -0.22800
H1657       H  0.50008935  0.45405873  0.60017093     0.08300
C1658       C  0.48643125  0.39884958  0.59718812     0.04700
C1659       C  0.48513049  0.38574278  0.57335227    -0.20000
C1660       C  0.50574500  0.39509306  0.55632198    -0.12300
C1661       C  0.52834009  0.41742297  0.56369934     0.13400
C1662       C  0.52957812  0.43031060  0.58749370    -0.22700
C1663       C  0.46391518  0.38898189  0.61465797    -0.05800
H1664       H  0.46784287  0.36868970  0.56736863     0.14900
C1665       C  0.55142902  0.42834221  0.54679280    -0.16000
H1666       H  0.54676243  0.44770541  0.59293418     0.09200
H1667       H  0.48970368  0.48205562  0.62671608     0.07100
H1668       H  0.52008593  0.50018112  0.61188680     0.08300
H1669       H  0.51563638  0.50567746  0.64746301     0.07300
H1670       H  0.53920124  0.42157681  0.64611451     0.02200
H1671       H  0.50834845  0.40071735  0.65943345     0.02700
H1672       H  0.53294513  0.42239601  0.68294326     0.06200
H1673       H  0.44787815  0.37108313  0.60639224     0.05200
H1674       H  0.45934663  0.40198421  0.61432161    -0.00600
H1675       H  0.46728349  0.38646628  0.63689760     0.00900
H1676       H  0.55760174  0.44623175  0.53811797     0.04500
H1677       H  0.54914461  0.41660016  0.52888928     0.06500
H1678       H  0.56600072  0.43124372  0.56085243     0.07400
C1679       C  0.80969548  0.52902271  0.52043229    -0.22300
C1680       C  0.79402942  0.52423547  0.99780156     0.09700
C1681       C  0.79405927  0.51238742  0.97337687     0.10100
C1682       C  0.80791418  0.50351946  0.97319256    -0.17200
C1683       C  0.82239813  0.50659744  0.49665150    -0.27600
C1684       C  0.82377420  0.52035205  0.52039382     0.18400
C1685       C  0.78120260  0.53555993  0.99831422     0.12400
C1686       C  0.77937712  0.50904214  0.94748516    -0.12000
H1687       H  0.80780951  0.49458978  0.95413598     0.12700
C1688       C  0.84028951  0.52673812  0.54559053    -0.22800
H1689       H  0.81096279  0.53985199  0.53816750     0.08300
C1690       C  0.75968913  0.52546763  0.51357887     0.04700
C1691       C  0.74836795  0.53703083  0.51331475    -0.20000
C1692       C  0.75831244  0.55868086  0.99840497    -0.12300
C1693       C  0.78121183  0.56991664  0.98493343     0.13400
C1694       C  0.79218148  0.55804857  0.98483594    -0.22700
C1695       C  0.74840221  0.50229048  0.53013125    -0.05800
H1696       H  0.73146162  0.52899413  0.52484664     0.14900
C1697       C  0.79520311  0.59480332  0.97151845    -0.16000
H1698       H  0.80970246  0.56660980  0.97451493     0.09200
H1699       H  0.83466794  0.50984480  0.55662331     0.07100
H1700       H  0.83933637  0.53819875  0.56137790     0.08300
H1701       H  0.85960904  0.53726497  0.53858806     0.07300
H1702       H  0.78589736  0.52711093  0.93909228     0.02200
H1703       H  0.75974082  0.49850178  0.95314554     0.02700
H1704       H  0.78104338  0.49899400  0.93032544     0.06200
H1705       H  0.73126862  0.49659991  0.54079539     0.05200
H1706       H  0.76142059  0.50506287  0.54667377    -0.00600
H1707       H  0.74397584  0.48731454  0.51563157     0.00900
H1708       H  0.81370424  0.60690210  0.98130384     0.04500
H1709       H  0.78645270  0.60393193  0.97442924     0.06500
H1710       H  0.79721755  0.59315196  0.94845604     0.07400
C1711       C  0.29605657  0.57395424  0.51614714    -0.22300
C1712       C  0.29069378  0.55406522  0.99962881     0.09700
C1713       C  0.26910051  0.54033091  0.98317172     0.10100
C1714       C  0.25297849  0.54652142  0.98367436    -0.17200
C1715       C  0.25794057  0.56601777  0.50074205    -0.27600
C1716       C  0.28022440  0.58050370  0.51618664     0.18400
C1717       C  0.30829587  0.54829738  0.99985798     0.12400
C1718       C  0.26313874  0.51919545  0.96511000    -0.12000
H1719       H  0.23608240  0.53560389  0.97156714     0.12700
C1720       C  0.28852278  0.60353545  0.53187645    -0.22800
H1721       H  0.31304309  0.58486491  0.52811903     0.08300
C1722       C  0.32904299  0.56079195  0.98224861     0.04700
C1723       C  0.34540396  0.55493550  0.98341602    -0.20000
C1724       C  0.34144286  0.53675429  0.00168546    -0.12300
C1725       C  0.32002834  0.52357621  0.51967368     0.13400
C1726       C  0.30405684  0.52995661  0.51889500    -0.22700
C1727       C  0.33389564  0.58031573  0.96227929    -0.05800
H1728       H  0.36167925  0.56500689  0.97038401     0.14900
C1729       C  0.31290065  0.50230508  0.53796608    -0.16000
H1730       H  0.28791980  0.52031784  0.53218892     0.09200
H1731       H  0.30694019  0.61892853  0.52425678     0.07100
H1732       H  0.28967845  0.60113964  0.55493184     0.08300
H1733       H  0.27637752  0.60891087  0.52855440     0.07300
H1734       H  0.26147708  0.50510720  0.97869477     0.02200
H1735       H  0.27790920  0.52568185  0.94939976     0.02700
H1736       H  0.24563360  0.51053000  0.95335096     0.06200
H1737       H  0.35084230  0.58814869  0.94982609     0.05200
H1738       H  0.33603361  0.59537106  0.97447901    -0.00600
H1739       H  0.31836057  0.57246050  0.94717174     0.00900
H1740       H  0.31411100  0.50727315  0.56068254     0.04500
H1741       H  0.32431704  0.49617235  0.53416960     0.06500
H1742       H  0.29376585  0.48643117  0.53299427     0.07400
C1743       C  0.91526128  0.49866464  0.55854588    -0.22300
C1744       C  0.90563714  0.49509305  0.58572773     0.09700
C1745       C  0.88257275  0.48997572  0.58944936     0.10100
C1746       C  0.86943442  0.48836162  0.56555046    -0.17200
C1747       C  0.87885000  0.49168232  0.53804454    -0.27600
C1748       C  0.90225660  0.49701881  0.53456414     0.18400
C1749       C  0.92061576  0.49757512  0.60995460     0.12400
C1750       C  0.87198620  0.48640999  0.61861093    -0.12000
H1751       H  0.85164646  0.48434721  0.56838008     0.12700
C1752       C  0.91427472  0.50184879  0.50600110    -0.22800
H1753       H  0.93317023  0.50284658  0.55617418     0.08300
C1754       C  0.91903884  0.47747595  0.62026749     0.04700
C1755       C  0.93430684  0.48098504  0.64271063    -0.20000
C1756       C  0.95146939  0.50424941  0.65477002    -0.12300
C1757       C  0.95346137  0.52458677  0.64356148     0.13400
C1758       C  0.93781684  0.52083426  0.62143983    -0.22700
C1759       C  0.90146671  0.45242265  0.60729994    -0.05800
H1760       H  0.93266758  0.46533522  0.65078156     0.14900
C1761       C  0.97222042  0.55040815  0.65399889    -0.16000
H1762       H  0.93913804  0.53618362  0.61273978     0.09200
H1763       H  0.90387104  0.48499580  0.49279750     0.07100
H1764       H  0.93323671  0.50757031  0.50794109     0.08300
H1765       H  0.91539934  0.51703304  0.99504708     0.07300
H1766       H  0.88439667  0.50317425  0.63158585     0.02200
H1767       H  0.86982790  0.47079703  0.62913724     0.02700
H1768       H  0.85375813  0.48257383  0.61775707     0.06200
H1769       H  0.90263351  0.43870886  0.61780694     0.05200
H1770       H  0.90574579  0.45293329  0.58449170    -0.00600
H1771       H  0.88241602  0.44635061  0.60933489     0.00900
H1772       H  0.99087295  0.55539036  0.65193962     0.04500
H1773       H  0.96854327  0.55220095  0.67639470     0.06500
H1774       H  0.97177598  0.56383000  0.64154393     0.07400
C1775       C  0.89526085  0.46922982  0.84376997    -0.22300
C1776       C  0.90361764  0.48295323  0.86894632     0.09700
C1777       C  0.92900071  0.49993503  0.87411267     0.10100
C1778       C  0.94550059  0.50328401  0.85355460    -0.17200
C1779       C  0.93726791  0.48967236  0.82826562    -0.27600
C1780       C  0.91177163  0.47249873  0.82314605     0.18400
C1781       C  0.88573003  0.47927783  0.89003840     0.12400
C1782       C  0.93867750  0.51432039  0.90147110    -0.12000
H1783       H  0.96501942  0.51654746  0.85729992     0.12700
C1784       C  0.90120531  0.45817703  0.79586730    -0.22800
H1785       H  0.87572661  0.45623203  0.83996174     0.08300
C1786       C  0.87920642  0.49520678  0.89178779     0.04700
C1787       C  0.86616726  0.49406175  0.91548407    -0.20000
C1788       C  0.85964634  0.47736798  0.93734762    -0.12300
C1789       C  0.86375994  0.45959819  0.93379599     0.13400
C1790       C  0.87706363  0.46100492  0.91033205    -0.22700
C1791       C  0.88686900  0.51400396  0.86923926    -0.05800
H1792       H  0.86279738  0.50750491  0.91796162     0.14900
C1793       C  0.85471228  0.43917942  0.95454215    -0.16000
H1794       H  0.88152608  0.44835044  0.90843021     0.09200
H1795       H  0.88898809  0.46189896  0.78616653     0.07100
H1796       H  0.89031523  0.43834806  0.80038732     0.08300
H1797       H  0.91524473  0.46289660  0.77994633     0.07300
H1798       H  0.93206314  0.50160871  0.91965020     0.02200
H1799       H  0.93229105  0.52571822  0.90396104     0.02700
H1800       H  0.95900612  0.52663432  0.90211803     0.06200
H1801       H  0.88022121  0.52496594  0.87385454     0.05200
H1802       H  0.87917709  0.50472155  0.84844441    -0.00600
H1803       H  0.90711620  0.52670695  0.86776083     0.00900
H1804       H  0.84363622  0.42140564  0.94304753     0.04500
H1805       H  0.84282709  0.43837808  0.97116312     0.06500
H1806       H  0.87053959  0.44140238  0.96483187     0.07400
C1807       C  0.98962366  0.42074918  0.61128300    -0.22300
C1808       C  0.99568051  0.40485889  0.61630484     0.09700
C1809       C  0.00878351  0.40768909  0.64103866     0.10100
C1810       C  0.01521793  0.42622949  0.66050975    -0.17200
C1811       C  0.00838897  0.44156568  0.65594226    -0.27600
C1812       C  0.99560882  0.43895386  0.63098998     0.18400
C1813       C  0.98814498  0.38557109  0.59505865     0.12400
C1814       C  0.01536221  0.39078472  0.64721449    -0.12000
H1815       H  0.02502233  0.42833419  0.67974911     0.12700
C1816       C  0.98881966  0.45569964  0.62479310    -0.22800
H1817       H  0.97995596  0.41869947  0.59193444     0.08300
C1818       C  0.96333921  0.36548286  0.59129621     0.04700
C1819       C  0.95665609  0.34948245  0.56837380    -0.20000
C1820       C  0.97418886  0.35340425  0.54891575    -0.12300
C1821       C  0.99928948  0.37248248  0.55405946     0.13400
C1822       C  0.00590967  0.38837713  0.57708322    -0.22700
C1823       C  0.94388807  0.36123092  0.61111552    -0.05800
H1824       H  0.93745953  0.33476232  0.56467724     0.14900
C1825       C  0.01921364  0.37623909  0.53551060    -0.16000
H1826       H  0.02496218  0.40369282  0.58042595     0.09200
H1827       H  0.97595899  0.45346953  0.64109243     0.07100
H1828       H  0.97975194  0.45168821  0.60376951     0.08300
H1829       H  0.00554907  0.47496285  0.62481112     0.07300
H1830       H  0.02762920  0.39242000  0.63047891     0.02200
H1831       H  0.99847345  0.37163239  0.64789207     0.02700
H1832       H  0.02497368  0.39513082  0.66791396     0.06200
H1833       H  0.92553832  0.34427585  0.60557899     0.05200
H1834       H  0.94283229  0.37671065  0.61006433    -0.00600
H1835       H  0.94832892  0.35948752  0.63317118     0.00900
H1836       H  0.01856190  0.38246863  0.51413190     0.04500
H1837       H  0.01721883  0.35919455  0.03352058     0.06500
H1838       H  0.03768536  0.39037944  0.54446016     0.07400
C1839       C  0.97737711  0.36122116  0.89485348    -0.22300
C1840       C  0.98563589  0.38538507  0.89808320     0.09700
C1841       C  0.98954676  0.39552347  0.92540168     0.10100
C1842       C  0.98392723  0.38083212  0.94904410    -0.17200
C1843       C  0.97474729  0.35624611  0.94608830    -0.27600
C1844       C  0.97241639  0.34661921  0.91854492     0.18400
C1845       C  0.99023524  0.40005830  0.87272755     0.12400
C1846       C  0.99952307  0.42183110  0.92958985    -0.12000
H1847       H  0.98597626  0.38848881  0.96996359     0.12700
C1848       C  0.96564450  0.32155094  0.91316502    -0.22800
H1849       H  0.97507938  0.35382321  0.87369524     0.08300
C1850       C  0.01242387  0.41205935  0.85789826     0.04700
C1851       C  0.01709159  0.42801628  0.83597781    -0.20000
C1852       C  0.00020223  0.43252218  0.82871372    -0.12300
C1853       C  0.97750448  0.41970716  0.84318002     0.13400
C1854       C  0.97285730  0.40357634  0.86495357    -0.22700
C1855       C  0.03142991  0.40854079  0.86577235    -0.05800
H1856       H  0.03425715  0.43719292  0.82478034     0.14900
C1857       C  0.95833852  0.42331793  0.83667708    -0.16000
H1858       H  0.95585622  0.39416580  0.87665925     0.09200
H1859       H  0.97939094  0.32308764  0.89889551     0.07100
H1860       H  0.94739317  0.30978936  0.90275266     0.08300
H1861       H  0.96552587  0.31255059  0.93262961     0.07300
H1862       H  0.98685050  0.42500739  0.92007158     0.02200
H1863       H  0.01769397  0.43397699  0.91930979     0.02700
H1864       H  0.00180558  0.42690308  0.95240953     0.06200
H1865       H  0.04793085  0.41954188  0.85221314     0.05200
H1866       H  0.02368166  0.38902041  0.86320119    -0.00600
H1867       H  0.03722236  0.41419511  0.88817473     0.00900
H1868       H  0.95170568  0.41753226  0.81453078     0.04500
H1869       H  0.96610390  0.44280310  0.83977197     0.06500
H1870       H  0.94220431  0.41229243  0.85077652     0.07400
C1871       C  0.18657285  0.56263511  0.60220867    -0.22300
C1872       C  0.17650152  0.57532392  0.60135855     0.09700
C1873       C  0.18190952  0.59098228  0.57854847     0.10100
C1874       C  0.19575135  0.59212760  0.55587242    -0.17200
C1875       C  0.20440037  0.57803505  0.55554312    -0.27600
C1876       C  0.20060302  0.56385157  0.57959824     0.18400
C1877       C  0.15859393  0.57027762  0.62325490     0.12400
C1878       C  0.17232551  0.60577685  0.57772585    -0.12000
H1879       H  0.19899725  0.60335283  0.53772951     0.13000
C1880       C  0.20994929  0.54885874  0.58101529    -0.22800
H1881       H  0.18250217  0.55089733  0.62009899     0.08300
C1882       C  0.13355210  0.55057665  0.62011161     0.04700
C1883       C  0.11708690  0.54618904  0.64139231    -0.20000
C1884       C  0.12503948  0.56134491  0.66542005    -0.12300
C1885       C  0.15018082  0.58113424  0.66851617     0.13400
C1886       C  0.16667534  0.58531058  0.64732550    -0.22700
C1887       C  0.12425187  0.53427107  0.59423720    -0.05800
H1888       H  0.09786082  0.53095084  0.63919123     0.14900
C1889       C  0.15996480  0.59726335  0.69453788    -0.16000
H1890       H  0.18597697  0.60031817  0.64951220     0.09200
H1891       H  0.20233103  0.53558816  0.56310933     0.07100
H1892       H  0.20457656  0.53837510  0.60104808     0.08300
H1893       H  0.23024701  0.56104885  0.58007460     0.07300
H1894       H  0.17930654  0.61822162  0.59640434     0.02200
H1895       H  0.15201321  0.59344239  0.57814417     0.02700
H1896       H  0.17821020  0.61705523  0.55828387     0.06200
H1897       H  0.10415651  0.51981137  0.59506793     0.05200
H1898       H  0.13326624  0.52525033  0.59264242    -0.00600
H1899       H  0.12835237  0.54528518  0.57490569     0.00900
H1900       H  0.18025518  0.61046919  0.69430549     0.04500
H1901       H  0.15459263  0.58593732  0.71386459     0.06500
H1902       H  0.15279504  0.60801866  0.69556703     0.07400
C1903       C  0.12373958  0.53780682  0.88536102    -0.22300
C1904       C  0.14843525  0.55800898  0.88353523     0.09700
C1905       C  0.15669916  0.57386225  0.86021970     0.10100
C1906       C  0.13983900  0.56943806  0.83940938    -0.17200
C1907       C  0.11509177  0.54926276  0.84119644    -0.27600
C1908       C  0.10686023  0.53318183  0.86443851     0.18400
C1909       C  0.16508562  0.56272737  0.90696410     0.12400
C1910       C  0.18323509  0.59541424  0.85740391    -0.12000
H1911       H  0.14606353  0.58158123  0.82141339     0.12700
C1912       C  0.08043563  0.51159314  0.86848759    -0.22800
H1913       H  0.11754681  0.52580605  0.90349854     0.08300
C1914       C  0.16595181  0.57438139  0.93204488     0.04700
C1915       C  0.18119422  0.57759123  0.95427460    -0.20000
C1916       C  0.19557362  0.56924150  0.95227924    -0.12300
C1917       C  0.19508493  0.55808031  0.92650317     0.13400
C1918       C  0.17978559  0.55501086  0.90422472    -0.22700
C1919       C  0.15071107  0.58337318  0.93536696    -0.05800
H1920       H  0.18157666  0.58650561  0.97351408     0.14900
C1921       C  0.20986658  0.54867921  0.92218850    -0.16000
H1922       H  0.17894406  0.54618917  0.88464009     0.09200
H1923       H  0.07390150  0.51343228  0.88914430     0.07100
H1924       H  0.07882586  0.49450150  0.86859223     0.08300
H1925       H  0.06808131  0.50989750  0.85183033     0.07300
H1926       H  0.19468614  0.58897296  0.85635025     0.02200
H1927       H  0.18900172  0.60780427  0.87597143     0.02700
H1928       H  0.18655352  0.60601037  0.83790388     0.06200
H1929       H  0.15375797  0.59232919  0.95629119     0.05200
H1930       H  0.13098160  0.56780571  0.93355445    -0.00600
H1931       H  0.15553266  0.59687396  0.91858501     0.00900
H1932       H  0.20473458  0.53457298  0.93824915     0.04500
H1933       H  0.22969912  0.56398446  0.92376021     0.06500
H1934       H  0.20659625  0.54012564  0.90093689     0.07400
C1935       C  0.06566140  0.66480555  0.58592221    -0.22300
C1936       C  0.08335056  0.67169994  0.60674312     0.09700
C1937       C  0.10702629  0.69387169  0.60411448     0.10100
C1938       C  0.11301615  0.70782165  0.57953884    -0.17200
C1939       C  0.09590952  0.69991250  0.55743215    -0.27600
C1940       C  0.07152394  0.67866366  0.56132821     0.18400
C1941       C  0.07735331  0.65401347  0.62926074     0.12400
C1942       C  0.12604960  0.70253972  0.62698956    -0.12000
H1943       H  0.13158165  0.72423460  0.57695519     0.12700
C1944       C  0.05150683  0.67027429  0.53982927    -0.22800
H1945       H  0.04743778  0.64782101  0.58832932     0.08300
C1946       C  0.06075254  0.64849294  0.65110136     0.04700
C1947       C  0.05439239  0.63013168  0.67050821    -0.20000
C1948       C  0.06430895  0.61726511  0.66855168    -0.12300
C1949       C  0.08081195  0.62270738  0.64643002     0.13400
C1950       C  0.08723433  0.64117623  0.62722949    -0.22700
C1951       C  0.05008674  0.66219673  0.65418192    -0.05800
H1952       H  0.04181073  0.62599124  0.68750355     0.14900
C1953       C  0.09109558  0.60879414  0.64131662    -0.16000
H1954       H  0.09953132  0.64513026  0.60993731     0.09200
H1955       H  0.03325108  0.65513150  0.54812324     0.07100
H1956       H  0.05454653  0.66331598  0.52038445     0.08300
H1957       H  0.05087410  0.68561814  0.53448776     0.07300
H1958       H  0.13017922  0.68931690  0.62960367     0.02200
H1959       H  0.11913826  0.70435432  0.64735078     0.02700
H1960       H  0.14342483  0.72057939  0.62186731     0.06200
H1961       H  0.03796222  0.65602462  0.67294926     0.05200
H1962       H  0.03907380  0.65926812  0.63512655    -0.00600
H1963       H  0.06508707  0.68201886  0.65675281     0.00900
H1964       H  0.08678274  0.60153472  0.61926132     0.04500
H1965       H  0.08346319  0.59295066  0.65544241     0.06500
H1966       H  0.11128661  0.62126935  0.64407861     0.07400
C1967       C  0.09813876  0.66286857  0.92880721    -0.22300
C1968       C  0.08062601  0.65973062  0.91000328     0.09700
C1969       C  0.07171954  0.67349577  0.91353143     0.10100
C1970       C  0.08054238  0.69018241  0.93618844    -0.17200
C1971       C  0.09790757  0.69311200  0.95514690    -0.27600
C1972       C  0.10694928  0.67943061  0.95140067     0.18400
C1973       C  0.07227507  0.64205911  0.88657198     0.12400
C1974       C  0.05291954  0.67043586  0.89347869    -0.12000
H1975       H  0.07362626  0.70065818  0.93940311     0.12700
C1976       C  0.12581717  0.68177126  0.97079943    -0.22800
H1977       H  0.10496051  0.65227484  0.92580616     0.08300
C1978       C  0.08604093  0.64859257  0.86154514     0.04700
C1979       C  0.07859640  0.63074783  0.84074417    -0.20000
C1980       C  0.05766620  0.60658730  0.84440668    -0.12300
C1981       C  0.04385051  0.60003069  0.86959763     0.13400
C1982       C  0.05130269  0.61801073  0.89032795    -0.22700
C1983       C  0.10854855  0.67438158  0.85685152    -0.05800
H1984       H  0.08910217  0.63573049  0.82139359     0.14900
C1985       C  0.02201875  0.57424519  0.87606935    -0.16000
H1986       H  0.04109360  0.61311486  0.90991296     0.09200
H1987       H  0.14214462  0.68738385  0.95826733     0.07100
H1988       H  0.11803628  0.66384639  0.98074159     0.08300
H1989       H  0.13203824  0.69541430  0.98800620     0.07300
H1990       H  0.03603626  0.65128261  0.89406540     0.02200
H1991       H  0.06023092  0.67481751  0.87155852     0.02700
H1992       H  0.04798261  0.68266634  0.89921246     0.06200
H1993       H  0.11701727  0.67641256  0.83594181     0.05200
H1994       H  0.12236943  0.67964259  0.87358402    -0.00600
H1995       H  0.10360701  0.68708280  0.85761790     0.00900
H1996       H  0.02515160  0.56846480  0.89645430     0.04500
H1997       H  0.01848924  0.56080233  0.85977829     0.06500
H1998       H  0.00543042  0.57349063  0.87806517     0.07400
C1999       C  0.82272008  0.22199302  0.51501634    -0.22300
C2000       C  0.83620886  0.21771590  0.99777722     0.09700
C2001       C  0.82431319  0.19591685  0.98186589     0.10100
C2002       C  0.79875192  0.17903248  0.98323118    -0.17200
C2003       C  0.78499514  0.18360438  0.49988924    -0.27600
C2004       C  0.79724382  0.20514183  0.51670162     0.18400
C2005       C  0.86237178  0.23787589  0.99425611     0.12400
C2006       C  0.83857013  0.19058483  0.96350445    -0.12000
H2007       H  0.78937431  0.16250803  0.97045633     0.12700
C2008       C  0.78369013  0.21130318  0.53521538    -0.22800
H2009       H  0.83223140  0.23895246  0.52699660     0.08300
C2010       C  0.87010294  0.25554367  0.97310914     0.04700
C2011       C  0.89440528  0.27655357  0.97317702    -0.20000
C2012       C  0.91112103  0.28051339  0.49370609    -0.12300
C2013       C  0.90351711  0.26191494  0.51381180     0.13400
C2014       C  0.87902792  0.24104064  0.51379310    -0.22700
C2015       C  0.85241394  0.25287403  0.95139853    -0.05800
H2016       H  0.89998603  0.29058244  0.95762548     0.14900
C2017       C  0.92058102  0.26308130  0.53517777    -0.16000
H2018       H  0.87279207  0.22720558  0.52985203     0.09200
H2019       H  0.77015477  0.21135466  0.52230481     0.07100
H2020       H  0.79625748  0.22962038  0.54527453     0.08300
H2021       H  0.77423693  0.19780526  0.55255147     0.07300
H2022       H  0.85175495  0.19029416  0.97684459     0.02200
H2023       H  0.84882318  0.20483167  0.94708338     0.02700
H2024       H  0.82638242  0.17260828  0.95259758     0.06200
H2025       H  0.86148818  0.26860511  0.93666599     0.05200
H2026       H  0.83739485  0.25176796  0.96221213    -0.00600
H2027       H  0.84449546  0.23606699  0.93855699     0.00900
H2028       H  0.91530568  0.26452245  0.55689939     0.04500
H2029       H  0.94003825  0.27847601  0.53161590     0.06500
H2030       H  0.91919022  0.24613318  0.53364093     0.07400
C2031       C  0.54182343  0.28756346  0.98372138    -0.22300
C2032       C  0.52201946  0.28268538  0.50031534     0.09700
C2033       C  0.50744884  0.26099710  0.51604718     0.10100
C2034       C  0.51323669  0.24462520  0.51604200    -0.17200
C2035       C  0.53319135  0.24943034  0.50056761    -0.27600
C2036       C  0.54781596  0.27132320  0.98395956     0.18400
C2037       C  0.51747727  0.30110116  0.50103096     0.12400
C2038       C  0.48581348  0.25517410  0.53277387    -0.12000
H2039       H  0.50189962  0.22778811  0.52789305     0.12700
C2040       C  0.57058208  0.27885950  0.96836276    -0.22800
H2041       H  0.55314488  0.30448697  0.97200791     0.08300
C2042       C  0.52873028  0.31982048  0.52166489     0.04700
C2043       C  0.52350272  0.33662747  0.52205247    -0.20000
C2044       C  0.50723460  0.33516611  0.00118935    -0.12300
C2045       C  0.49561536  0.31603251  0.98078457     0.13400
C2046       C  0.50122388  0.29948664  0.98015456    -0.22700
C2047       C  0.54631711  0.32207646  0.54314934    -0.05800
H2048       H  0.53258404  0.35136709  0.53753108     0.14900
C2049       C  0.47646125  0.31171741  0.96026789    -0.16000
H2050       H  0.49241291  0.28478719  0.96461256     0.09200
H2051       H  0.58633495  0.29724182  0.97587244     0.07100
H2052       H  0.56800393  0.27973151  0.94527514     0.08300
H2053       H  0.57559698  0.26646322  0.97181075     0.07300
H2054       H  0.47244499  0.25419088  0.51830132     0.02200
H2055       H  0.49194791  0.26960326  0.54898796     0.02700
H2056       H  0.47634111  0.23740212  0.54384086     0.06200
H2057       H  0.55352718  0.33780899  0.55776693     0.05200
H2058       H  0.56206629  0.32475425  0.53210916    -0.00600
H2059       H  0.53693776  0.30523594  0.55606686     0.00900
H2060       H  0.48342995  0.31471283  0.93825539     0.04500
H2061       H  0.47084135  0.32353700  0.96440868     0.06500
H2062       H  0.45970823  0.29257401  0.96215937     0.07400
C2063       C  0.66969116  0.13445960  0.56842011    -0.22300
C2064       C  0.67238919  0.12306845  0.59094419     0.09700
C2065       C  0.69178801  0.12121831  0.59099107     0.10100
C2066       C  0.70766897  0.13012341  0.56774973    -0.17200
C2067       C  0.70439879  0.14070903  0.54465058    -0.27600
C2068       C  0.68575058  0.14377556  0.54547086     0.18400
C2069       C  0.65414324  0.11273192  0.61379968     0.12400
C2070       C  0.69556778  0.10974494  0.61540630    -0.12000
H2071       H  0.72216843  0.12808295  0.56715976     0.12700
C2072       C  0.68261495  0.15734155  0.52310593    -0.22800
H2073       H  0.65495807  0.13617605  0.56884144     0.08300
C2074       C  0.65439792  0.12782035  0.63436782     0.04700
C2075       C  0.63555435  0.11732871  0.65432224    -0.20000
C2076       C  0.61640306  0.09214332  0.65398768    -0.12300
C2077       C  0.61603191  0.07707712  0.63298824     0.13400
C2078       C  0.63518279  0.08760078  0.61341554    -0.22700
C2079       C  0.67467646  0.15490273  0.63540882    -0.05800
H2080       H  0.63602691  0.12884985  0.67053164     0.14900
C2081       C  0.59538039  0.05019784  0.62951290    -0.16000
H2082       H  0.63491956  0.07625727  0.59709638     0.09200
H2083       H  0.68292818  0.17212940  0.53335707     0.07100
H2084       H  0.66473596  0.14458873  0.51216664     0.08300
H2085       H  0.69734868  0.16615526  0.50708072     0.07300
H2086       H  0.67929456  0.09041938  0.61772317     0.02200
H2087       H  0.69836003  0.11988534  0.63529157     0.02700
H2088       H  0.71182181  0.11007828  0.61217957     0.06200
H2089       H  0.67235125  0.16391272  0.65329501     0.05200
H2090       H  0.67489381  0.16351593  0.61543967    -0.00600
H2091       H  0.69255318  0.15819951  0.63813534     0.00900
H2092       H  0.58837039  0.04648531  0.60737433     0.04500
H2093       H  0.57955803  0.04367178  0.64338187     0.06500
H2094       H  0.60221464  0.03938695  0.63384646     0.07400
C2095       C  0.70112118  0.14350083  0.89588841    -0.22300
C2096       C  0.68056973  0.11902778  0.89380075     0.09700
C2097       C  0.67532449  0.10258067  0.91558000     0.10100
C2098       C  0.69029605  0.11128673  0.93973119    -0.17200
C2099       C  0.71016092  0.13607989  0.94265701    -0.27600
C2100       C  0.71581021  0.15245661  0.92032922     0.18400
C2101       C  0.66316765  0.11164191  0.87031054     0.12400
C2102       C  0.65338671  0.07611002  0.91377754    -0.12000
H2103       H  0.68597425  0.09884112  0.95691199     0.12700
C2104       C  0.73576126  0.17963600  0.92207053    -0.22800
H2105       H  0.70479718  0.15600957  0.87905890     0.08300
C2106       C  0.64544733  0.11585269  0.87185818     0.04700
C2107       C  0.62859575  0.10780774  0.84964548    -0.20000
C2108       C  0.62898673  0.09552339  0.82607761    -0.12300
C2109       C  0.64735077  0.09201559  0.82416704     0.13400
C2110       C  0.66401232  0.09986496  0.84661908    -0.22700
C2111       C  0.64397664  0.12829996  0.89728581    -0.05800
H2112       H  0.61458900  0.11051456  0.85108643     0.14900
C2113       C  0.65074693  0.08105321  0.79861414    -0.16000
H2114       H  0.67792441  0.09699711  0.84555091     0.09200
H2115       H  0.72770299  0.18943044  0.91854154     0.07100
H2116       H  0.74952060  0.18505342  0.90532168     0.08300
H2117       H  0.74529209  0.18594492  0.94277355     0.07300
H2118       H  0.65495512  0.06743730  0.89488233     0.02200
H2119       H  0.63640566  0.07468530  0.91198492     0.02700
H2120       H  0.65181828  0.06580318  0.93282553     0.06200
H2121       H  0.62876593  0.12978112  0.89524419     0.05200
H2122       H  0.66131531  0.14703208  0.89964552    -0.00600
H2123       H  0.64086747  0.11772474  0.91672320     0.00900
H2124       H  0.66998872  0.09366828  0.79128647     0.04500
H2125       H  0.63914493  0.07810247  0.78029844     0.06500
H2126       H  0.64688522  0.06339230  0.80447738     0.07400
C2127       C  0.54737706  0.18728256  0.60040801    -0.22300
C2128       C  0.53151952  0.16169531  0.59932925     0.09700
C2129       C  0.51720606  0.14965306  0.57487784     0.10100
C2130       C  0.51966583  0.16349681  0.55157011    -0.17200
C2131       C  0.53602407  0.18911680  0.55215164    -0.27600
C2132       C  0.55000920  0.20124925  0.57699228     0.18400
C2133       C  0.53118606  0.14763167  0.62319645     0.12400
C2134       C  0.49968111  0.12217466  0.57322216    -0.12000
H2135       H  0.50890119  0.15423641  0.53258701     0.12700
C2136       C  0.56876815  0.22859751  0.57921914    -0.22800
H2137       H  0.55840324  0.19637104  0.61928190     0.08300
C2138       C  0.54803015  0.14227311  0.62460585     0.04700
C2139       C  0.54591468  0.12725044  0.64633236    -0.20000
C2140       C  0.52706881  0.11706269  0.66643047    -0.12300
C2141       C  0.51046113  0.12296500  0.66526446     0.13400
C2142       C  0.51284966  0.13825884  0.64363031    -0.22700
C2143       C  0.56794860  0.15207028  0.60284622    -0.05800
H2144       H  0.55882384  0.12305156  0.64729013     0.14900
C2145       C  0.49054793  0.11392800  0.68681771    -0.16000
H2146       H  0.50005067  0.14258177  0.64224866     0.09200
H2147       H  0.58685189  0.23313104  0.58475949     0.07100
H2148       H  0.56336637  0.23572138  0.59619811     0.08300
H2149       H  0.57115808  0.23825865  0.55932117     0.07300
H2150       H  0.48570009  0.11517243  0.59010146     0.02200
H2151       H  0.50980221  0.11439250  0.57609287     0.02700
H2152       H  0.49002937  0.11571712  0.55244611     0.06200
H2153       H  0.57949815  0.14601792  0.60694558     0.05200
H2154       H  0.57995349  0.17234499  0.60327893    -0.00600
H2155       H  0.55970406  0.14552461  0.58138422     0.00900
H2156       H  0.48165268  0.12303185  0.68452174     0.04500
H2157       H  0.49825667  0.11778038  0.70861467     0.06500
H2158       H  0.47602323  0.09412038  0.68371282     0.07400
C2159       C  0.56299424  0.16036905  0.86233060    -0.22300
C2160       C  0.54277439  0.15272649  0.87913812     0.09700
C2161       C  0.52069559  0.12912889  0.87547603     0.10100
C2162       C  0.51931068  0.11356914  0.85490558    -0.17200
C2163       C  0.53953259  0.12095912  0.83790631    -0.27600
C2164       C  0.56182119  0.14478480  0.84186145     0.18400
C2165       C  0.54570119  0.16874130  0.90240294     0.12400
C2166       C  0.49876088  0.12018178  0.89374709    -0.12000
H2167       H  0.50232893  0.09538661  0.85250576     0.12700
C2168       C  0.58454144  0.15418730  0.82492608    -0.22800
H2169       H  0.57993454  0.17848907  0.86573709     0.08300
C2170       C  0.55631888  0.16950918  0.92833122     0.04700
C2171       C  0.55618784  0.18248413  0.95113520    -0.20000
C2172       C  0.54541120  0.19454074  0.94886465    -0.12300
C2173       C  0.53593739  0.19485081  0.92217964     0.13400
C2174       C  0.53621586  0.18184640  0.89926671    -0.22700
C2175       C  0.56696483  0.15584526  0.93226239    -0.05800
H2176       H  0.56398590  0.18257384  0.97118914     0.14900
C2177       C  0.52461600  0.20781201  0.91770892    -0.16000
H2178       H  0.52827869  0.18118372  0.87904841     0.09200
H2179       H  0.59061804  0.14265450  0.82878213     0.07100
H2180       H  0.59996280  0.17321487  0.83098245     0.08300
H2181       H  0.58083041  0.15418393  0.80200358     0.07300
H2182       H  0.49286434  0.13195183  0.89070175     0.02200
H2183       H  0.50353410  0.12076911  0.91640733     0.02700
H2184       H  0.48303722  0.10109994  0.88837232     0.06200
H2185       H  0.57410844  0.15800877  0.95412216     0.05200
H2186       H  0.58233041  0.16284812  0.91730217    -0.00600
H2187       H  0.55266106  0.13605721  0.92818724     0.00900
H2188       H  0.51763458  0.20538387  0.89570334     0.04500
H2189       H  0.53851865  0.22771902  0.92145770     0.06500
H2190       H  0.50894087  0.20041598  0.93230678     0.07400
C2191       C  0.23073762  0.86234381  0.98245600    -0.22300
C2192       C  0.22448327  0.84462655  0.50330690     0.09700
C2193       C  0.24182696  0.84923806  0.52378969     0.10100
C2194       C  0.26532014  0.87147082  0.52330800    -0.17200
C2195       C  0.27207492  0.88902804  0.50245240    -0.27600
C2196       C  0.25429516  0.88468884  0.98197002     0.18400
C2197       C  0.20051308  0.82038045  0.50128850     0.12400
C2198       C  0.23584679  0.83027231  0.54542641    -0.12000
H2199       H  0.27887376  0.87459476  0.53846222     0.12700
C2200       C  0.25923703  0.90330774  0.96042949    -0.22800
H2201       H  0.21722777  0.85867277  0.96685803     0.08300
C2202       C  0.18028007  0.81432971  0.51742130     0.04700
C2203       C  0.15893359  0.79009587  0.51730101    -0.20000
C2204       C  0.15752159  0.77187785  0.50149205    -0.12300
C2205       C  0.17795811  0.77802147  0.98477565     0.13400
C2206       C  0.19893780  0.80233268  0.98433960    -0.22700
C2207       C  0.18133939  0.83341260  0.53479298    -0.05800
H2208       H  0.14329242  0.78531428  0.52966496     0.14900
C2209       C  0.17934378  0.75956511  0.96934769    -0.16000
H2210       H  0.21480266  0.80709342  0.97245490     0.09200
H2211       H  0.24528064  0.90657609  0.96250274     0.07100
H2212       H  0.25805709  0.89629770  0.93873359     0.08300
H2213       H  0.27732714  0.92122840  0.96325397     0.07300
H2214       H  0.23096117  0.81348731  0.53452254     0.02200
H2215       H  0.22019842  0.82566855  0.55860908     0.02700
H2216       H  0.25158766  0.83683069  0.55979025     0.06200
H2217       H  0.16388262  0.82562154  0.54610243     0.05200
H2218       H  0.18494219  0.84815715  0.52070095    -0.00600
H2219       H  0.19621287  0.84138909  0.55083963     0.00900
H2220       H  0.18013634  0.76259381  0.94613882     0.04500
H2221       H  0.16398097  0.74038773  0.97394265     0.06500
H2222       H  0.19620766  0.76190018  0.97598966     0.07400
C2223       C  0.38731743  0.97859070  0.57720908    -0.22300
C2224       C  0.38034208  0.96230303  0.59953451     0.09700
C2225       C  0.35784819  0.93876821  0.59824795     0.10100
C2226       C  0.34328537  0.93155314  0.57377668    -0.17200
C2227       C  0.35082432  0.94736557  0.55057168    -0.27600
C2228       C  0.37285669  0.97150051  0.55269321     0.18400
C2229       C  0.39753569  0.97009895  0.62345936     0.12400
C2230       C  0.34947204  0.92123657  0.62251397    -0.12000
H2231       H  0.32636287  0.91316031  0.57239796     0.12700
C2232       C  0.38115724  0.99008754  0.52960525    -0.22800
H2233       H  0.40450350  0.99678752  0.57876119     0.08300
C2234       C  0.41568214  0.96644149  0.62273741     0.04700
C2235       C  0.43241134  0.97513055  0.64523802    -0.20000
C2236       C  0.43167870  0.98778533  0.66814509    -0.12300
C2237       C  0.41323475  0.99117694  0.66899230     0.13400
C2238       C  0.39633193  0.98221364  0.64654523    -0.22700
C2239       C  0.41758154  0.95367065  0.59803260    -0.05800
H2240       H  0.44650517  0.97252100  0.64459289     0.14900
C2241       C  0.41078399  0.00356020  0.69370323    -0.16000
H2242       H  0.38222525  0.98482057  0.64681889     0.09200
H2243       H  0.38646873  0.98491394  0.51044037     0.07100
H2244       H  0.39740004  0.00851522  0.53628005     0.08300
H2245       H  0.36641488  0.99145865  0.02336312     0.07300
H2246       H  0.34779843  0.92929139  0.64197168     0.02200
H2247       H  0.36291813  0.91752076  0.62642305     0.02700
H2248       H  0.33139714  0.90355155  0.61807348     0.06200
H2249       H  0.43286264  0.95237935  0.60086373     0.05200
H2250       H  0.42086169  0.96389850  0.57822493    -0.00600
H2251       H  0.40034179  0.93486074  0.59578042     0.00900
H2252       H  0.42708112  0.02297674  0.69508015     0.04500
H2253       H  0.40886863  0.99406809  0.71369167     0.06500
H2254       H  0.39444790  0.00323492  0.69146314     0.07400
C2255       C  0.36329357  0.93282711  0.90518352    -0.22300
C2256       C  0.38125239  0.95793877  0.90138993     0.09700
C2257       C  0.38207415  0.97474637  0.91958388     0.10100
C2258       C  0.36554873  0.96601299  0.94209219    -0.17200
C2259       C  0.34823938  0.94086508  0.94689105    -0.27600
C2260       C  0.34683952  0.92395417  0.92791194     0.18400
C2261       C  0.39998929  0.96639088  0.87929018     0.12400
C2262       C  0.40090287  0.00188095  0.91575501    -0.12000
H2263       H  0.36662912  0.97892879  0.95662781     0.12700
C2264       C  0.32955632  0.89662654  0.93162902    -0.22800
H2265       H  0.36281246  0.92005591  0.89100360     0.08300
C2266       C  0.42098086  0.96755167  0.88433808     0.04700
C2267       C  0.43905030  0.97713573  0.86339483    -0.20000
C2268       C  0.43667616  0.98586241  0.83781889    -0.12300
C2269       C  0.41520239  0.98392384  0.83242909     0.13400
C2270       C  0.39723863  0.97439906  0.85343513    -0.22700
C2271       C  0.42455836  0.95927999  0.91208935    -0.05800
H2272       H  0.45542095  0.97846133  0.86729543     0.14900
C2273       C  0.41009158  0.99090118  0.80464209    -0.16000
H2274       H  0.38093294  0.97321681  0.84965030     0.09200
H2275       H  0.34024349  0.88934044  0.93304732     0.07100
H2276       H  0.31710077  0.88816694  0.91298720     0.08300
H2277       H  0.31827564  0.89076446  0.95093814     0.07300
H2278       H  0.39855553  0.00726281  0.89460140     0.02200
H2279       H  0.41957680  0.00684064  0.91739233     0.02700
H2280       H  0.39918225  0.01246291  0.93209621     0.06200
H2281       H  0.44214043  0.96175327  0.91268285     0.05200
H2282       H  0.40946615  0.93961566  0.91527938    -0.00600
H2283       H  0.42464069  0.97003835  0.92981264     0.00900
H2284       H  0.39218435  0.97508538  0.79609016     0.04500
H2285       H  0.42384624  0.99607477  0.78811003     0.06500
H2286       H  0.40922344  0.00636530  0.80815532     0.07400
C2287       C  0.58508598  0.84860354  0.51808281    -0.22300
C2288       C  0.57705248  0.83095202  0.99763834     0.09700
C2289       C  0.56094379  0.82788731  0.97636314     0.10100
C2290       C  0.55240545  0.84196289  0.97748127    -0.17200
C2291       C  0.55975963  0.85921308  0.49853372    -0.27600
C2292       C  0.57691899  0.86304642  0.51909886     0.18400
C2293       C  0.58538152  0.81553000  0.99821962     0.12400
C2294       C  0.55263696  0.80961953  0.95264669    -0.12000
H2295       H  0.53959639  0.83923882  0.96144713     0.12700
C2296       C  0.58785614  0.88269390  0.54164166    -0.22800
H2297       H  0.59788108  0.85112227  0.53400815     0.08300
C2298       C  0.60771412  0.82316929  0.98596014     0.04700
C2299       C  0.61440161  0.80746471  0.98662914    -0.20000
C2300       C  0.59917334  0.78437533  0.99923552    -0.12300
C2301       C  0.57662101  0.77676644  0.50999785     0.13400
C2302       C  0.57032560  0.79272651  0.50978015    -0.22700
C2303       C  0.62431951  0.84777593  0.97212148    -0.05800
H2304       H  0.63166924  0.81329340  0.97753835     0.14900
C2305       C  0.55807118  0.75153524  0.52174993    -0.16000
H2306       H  0.55306999  0.78695785  0.51888063     0.09200
H2307       H  0.60813631  0.89418737  0.54049591     0.07100
H2308       H  0.58202321  0.87415822  0.56290653     0.08300
H2309       H  0.58285576  0.89518971  0.53918332     0.07300
H2310       H  0.54272004  0.79095668  0.96148061     0.02200
H2311       H  0.56874562  0.81406592  0.94057420     0.02700
H2312       H  0.54015804  0.80967373  0.93764559     0.06200
H2313       H  0.64102179  0.85083465  0.96343654     0.05200
H2314       H  0.63008710  0.86241137  0.98790496    -0.00600
H2315       H  0.61450438  0.84911250  0.95440242     0.00900
H2316       H  0.55555246  0.75287633  0.54474238     0.04500
H2317       H  0.56312158  0.73911154  0.51876922     0.06500
H2318       H  0.54026413  0.74292406  0.51071219     0.07400
C2319       C  0.50205220  0.90571946  0.57599641    -0.22300
C2320       C  0.51909507  0.91479151  0.59812744     0.09700
C2321       C  0.53672521  0.91042804  0.59814186     0.10100
C2322       C  0.53852922  0.89919897  0.57441886    -0.17200
C2323       C  0.52310270  0.89239036  0.55076553    -0.27600
C2324       C  0.50368532  0.89438718  0.55230219     0.18400
C2325       C  0.51978274  0.93102238  0.61941924     0.12400
C2326       C  0.55422001  0.91855413  0.62266510    -0.12000
H2327       H  0.55305057  0.89720729  0.57365038     0.12700
C2328       C  0.48459126  0.88467848  0.52921993    -0.22800
H2329       H  0.48814875  0.90860450  0.57667686     0.08300
C2330       C  0.53261617  0.95617159  0.61401112     0.04700
C2331       C  0.53332732  0.97119557  0.63484969    -0.20000
C2332       C  0.52146127  0.96161001  0.66086879    -0.12300
C2333       C  0.50904064  0.93644965  0.66650798     0.13400
C2334       C  0.50802503  0.92138689  0.64540884    -0.22700
C2335       C  0.54574258  0.96715566  0.58635433    -0.05800
H2336       H  0.54317381  0.99053939  0.63082411     0.14900
C2337       C  0.49785823  0.92499575  0.69482321    -0.16000
H2338       H  0.49856957  0.90211818  0.64952147     0.09200
H2339       H  0.49265186  0.89574996  0.50974055     0.07100
H2340       H  0.46943020  0.88536691  0.53567222     0.08300
H2341       H  0.47658363  0.86532434  0.52450342     0.07300
H2342       H  0.54377014  0.90945583  0.64235817     0.02200
H2343       H  0.56527764  0.93865633  0.62550020     0.02700
H2344       H  0.56694235  0.91381983  0.61923844     0.06200
H2345       H  0.55508651  0.98714502  0.58575081     0.05200
H2346       H  0.53245110  0.95852904  0.56848392    -0.00600
H2347       H  0.55977591  0.96409163  0.58338816     0.00900
H2348       H  0.47779617  0.91096806  0.69226108     0.04500
H2349       H  0.50122711  0.93825150  0.71126319     0.06500
H2350       H  0.50585624  0.91602804  0.70290804     0.07400
C2351       C  0.51319729  0.94228082  0.87638808    -0.22300
C2352       C  0.53269759  0.94085416  0.87790024     0.09700
C2353       C  0.55165184  0.95316780  0.85786642     0.10100
C2354       C  0.55066582  0.96673946  0.83658446    -0.17200
C2355       C  0.53137910  0.96867102  0.83520358    -0.27600
C2356       C  0.51255942  0.95657333  0.85583276     0.18400
C2357       C  0.53407587  0.92843278  0.90241397     0.12400
C2358       C  0.57305729  0.95226187  0.85927501    -0.12000
H2359       H  0.56507404  0.97583574  0.82091156     0.12700
C2360       C  0.49235571  0.95930772  0.85832571    -0.22800
H2361       H  0.49899448  0.93315986  0.89234519     0.08300
C2362       C  0.54292727  0.94050239  0.92879958     0.04700
C2363       C  0.54329074  0.92803641  0.95188386    -0.20000
C2364       C  0.53498900  0.90375733  0.94928402    -0.12300
C2365       C  0.52600956  0.89157835  0.92276781     0.13400
C2366       C  0.52592948  0.90425618  0.89952482    -0.22700
C2367       C  0.55209517  0.96659279  0.93255649    -0.05800
H2368       H  0.55019389  0.93736567  0.97216971     0.14900
C2369       C  0.51530708  0.86509465  0.91838566    -0.16000
H2370       H  0.51893920  0.89506570  0.87918168     0.09200
H2371       H  0.49151054  0.96424072  0.88052503     0.07100
H2372       H  0.47453173  0.94172368  0.85283524     0.08300
H2373       H  0.49508544  0.97397233  0.84506997     0.07300
H2374       H  0.56647643  0.93306128  0.85713996     0.02200
H2375       H  0.58270422  0.95980894  0.87991983     0.02700
H2376       H  0.58641825  0.96307724  0.84208980     0.06200
H2377       H  0.55870733  0.97334544  0.95452477     0.05200
H2378       H  0.53712815  0.96805327  0.92800074    -0.00600
H2379       H  0.56750984  0.97856941  0.91783989     0.00900
H2380       H  0.49636623  0.85503277  0.90995373     0.04500
H2381       H  0.51421106  0.85582407  0.93809985     0.06500
H2382       H  0.52651776  0.86366617  0.90278633     0.07400
loop_ 
_geom_bond_atom_site_label_1 
_geom_bond_atom_site_label_2 
_geom_bond_distance 
_geom_bond_site_symmetry_2 
_ccdc_geom_bond_type 
C1            N6   1.362   1_556  A
C1         N1193   1.360       .  A
C1         C1100   1.477       .  S
N2            C3   1.356       .  A
N2         C1192   1.360       .  A
C3            N4   1.352       .  A
C3         C1173   1.473       .  S
N4         C1196   1.353       .  A
C5            N6   1.360       .  A
C5         N1195   1.353   1_554  A
C5         C1132   1.480       .  S
C7            N8   1.360       .  A
C7         N1203   1.361   1_554  A
C7         C1004   1.478       .  S
N8            C9   1.357       .  A
C9         N1201   1.353   1_554  A
C9         C1036   1.481       .  S
N10          C11   1.354       .  A
N10        C1200   1.353       .  A
C11          N12   1.358       .  A
C11        C1068   1.475       .  S
N12        C1198   1.361       .  A
C13          N31   1.350       .  A
C13          C50   1.462   1_565  S
C13        C1164   1.481       .  S
N14          N31   1.323       .  A
N14          N36   1.319   1_565  A
N14         Co51   2.080       .  S
C15          N40   1.339       .  A
C15          C53   1.461       .  S
C15          H60   1.082       .  S
H16          C57   1.082       .  S
C17          N41   1.338       .  A
C17          C21   1.465       .  S
C17          H46   1.081       .  S
Co18         N36   2.081       .  S
Co18         N26   2.069       .  S
Co18         N58   2.071       .  S
Co18         N34   2.074       .  S
Co18        Cl62   2.442       .  S
N19          C57   1.340       .  A
N19          N26   1.319       .  A
N19         Co20   2.081       .  S
Co20         N23   2.077       .  S
Co20         N40   2.079       .  S
Co20         N27   2.085       .  S
Co20        Cl62   2.452       .  S
C21          N59   1.349       .  A
C21         C972   1.486       .  S
N22          N29   1.320       .  A
N22          N52   1.323       .  A
N22         Co55   2.078       .  S
N23          N41   1.319       .  A
N23          N59   1.322       .  A
N24          C53   1.348       .  A
N24          N34   1.321       .  A
H25          C50   1.081       .  S
N26          N47   1.322       .  A
N27          N45   1.318       .  A
N27          N32   1.324       .  A
C28          N32   1.352       .  A
C28          C56   1.463       .  S
C28         C949   1.485       .  S
N29          C44   1.341   1_545  A
N29         Co51   2.081   1_545  S
C30          N58   1.338       .  A
C30          C33   1.453   1_545  S
C30          H64   1.082       .  S
C33          N54   1.350       .  A
C33        C1141   1.471       .  S
N34          N40   1.319       .  A
N35          C61   1.339   1_545  A
N35          N37   1.320       .  A
N35         Co51   2.081   1_545  S
N36          C50   1.339       .  A
N37          N65   1.323       .  A
N37         Co55   2.080       .  S
H38          C61   1.082       .  S
H39          C56   1.078       .  S
N41         Co55   2.081       .  S
N42          N54   1.325       .  A
N42          N58   1.319   1_565  A
N42         Co51   2.084       .  S
C43          N47   1.346       .  A
C43          C57   1.460       .  S
C43         C917   1.472       .  S
C44          C63   1.457       .  S
C44          H48   1.081       .  S
N45          C56   1.339       .  A
N45         Co55   2.079       .  S
C49          N65   1.348   1_565  A
C49          C61   1.459       .  S
C49        C1045   1.476       .  S
Co51        Cl62   2.453   1_565  S
N52          C63   1.348   1_545  A
C53         C885   1.472       .  S
Co55        Cl62   2.444       .  S
C63        C1077   1.471       .  S
C66          N71   1.360       .  A
C66        N1258   1.359   1_554  A
C66         C844   1.473   1_554  S
N67          C68   1.357       .  A
N67        C1257   1.359       .  A
C68        N1260   1.356       .  A
C68         C981   1.486       .  S
N69          C70   1.354       .  A
N69        C1259   1.356   1_554  A
C70          N71   1.356       .  A
C70         C940   1.474       .  S
C72          N77   1.358   1_556  A
C72        N1264   1.359       .  A
C72         C812   1.475   1_556  S
N73          C74   1.356       .  A
N73        C1263   1.359       .  A
C74        N1266   1.354       .  A
C74         C908   1.469       .  S
N75          C76   1.354   1_556  A
N75        C1265   1.354       .  A
C76          N77   1.355       .  A
C76         C876   1.468       .  S
C78          N96   1.348       .  A
C78         C115   1.460       .  S
C78         C789   1.470       .  S
N79          N96   1.321       .  A
N79         N101   1.319       .  A
N79        Co116   2.077       .  S
C80         N105   1.341       .  A
C80         C118   1.467       .  S
C80         H125   1.081       .  S
H81         C122   1.082       .  S
C82         N106   1.337       .  A
C82          C86   1.461       .  S
C82         H111   1.081       .  S
Co83        N101   2.078       .  S
Co83         N91   2.075   1_455  S
Co83        N123   2.075       .  S
Co83         N99   2.073   1_455  S
Co83       Cl127   2.444       .  S
N84         C122   1.344       .  A
N84          N91   1.320       .  A
N84         Co85   2.092       .  S
Co85         N88   2.088   1_655  S
Co85        N105   2.084       .  S
Co85         N92   2.088   1_655  S
Co85       Cl127   2.453   1_655  S
C86         N124   1.352   1_455  A
C86         C661   1.487       .  S
N87          N94   1.319       .  A
N87         N117   1.324       .  A
N87        Co120   2.078       .  S
N88         N106   1.319       .  A
N88         N124   1.324   1_455  A
N89         C118   1.347       .  A
N89          N99   1.320       .  A
H90         C115   1.082       .  S
N91         N112   1.322       .  A
N92         N110   1.320       .  A
N92          N97   1.324   1_455  A
C93          N97   1.350   1_455  A
C93         C121   1.455       .  S
C93         C620   1.470       .  S
N94         C109   1.338       .  A
N94        Co116   2.073       .  S
C95         N123   1.338       .  A
C95          C98   1.456       .  S
C95         H129   1.081       .  S
C98         N119   1.350       .  A
C98         C757   1.472       .  S
N99         N105   1.318       .  A
N100        C126   1.340       .  A
N100        N102   1.319       .  A
N100       Co116   2.078       .  S
N101        C115   1.340       .  A
N102        N130   1.325       .  A
N102       Co120   2.088       .  S
H103        C126   1.081       .  S
H104        C121   1.082       .  S
N106       Co120   2.076       .  S
N107        N119   1.324       .  A
N107        N123   1.319       .  A
N107       Co116   2.077       .  S
C108        N112   1.346       .  A
C108        C122   1.463       .  S
C108        C588   1.474       .  S
C109        C128   1.455       .  S
C109        H113   1.081       .  S
N110        C121   1.338       .  A
N110       Co120   2.071       .  S
C114        N130   1.350       .  A
C114        C126   1.459       .  S
C114        C693   1.477       .  S
Co116      Cl127   2.451       .  S
N117        C128   1.348       .  A
C118        C565   1.486       .  S
Co120      Cl127   2.445       .  S
C128        C716   1.467       .  S
C131        N136   1.361       .  A
C131       N1323   1.360   1_554  A
C131        C524   1.479       .  S
N132        C133   1.358       .  A
N132       C1322   1.360       .  A
C133       N1325   1.356       .  A
C133        C725   1.492       .  S
N134        C135   1.354       .  A
N134       C1324   1.356   1_554  A
C135        N136   1.358       .  A
C135        C684   1.482       .  S
C137        N142   1.361   1_556  A
C137       N1329   1.358       .  A
C137        C821   1.479       .  S
N138        C139   1.355       .  A
N138       C1328   1.358       .  A
C139       N1331   1.354       .  A
C139        C652   1.480       .  S
N140        C141   1.353   1_556  A
N140       C1330   1.354       .  A
C141        N142   1.359       .  A
C141        C629   1.478       .  S
C143        N148   1.361   1_556  A
C143       N1335   1.365       .  A
C143        C492   1.502       .  S
N144        C145   1.360       .  A
N144       C1334   1.365       .  A
C145       N1337   1.352       .  A
C145        C597   1.478       .  S
N146        C147   1.350   1_556  A
N146       C1336   1.352       .  A
C147        N148   1.359       .  A
C147        C556   1.484       .  S
C149        N154   1.361       .  A
C149       N1341   1.358   1_554  A
C149       C1013   1.475       .  S
N150        C151   1.354       .  A
N150       C1340   1.358       .  A
C151       N1343   1.351       .  A
C151        C780   1.461       .  S
N152        C153   1.354       .  A
N152       C1342   1.351   1_554  A
C153        N154   1.360       .  A
C153        C748   1.482       .  S
C155        N173   1.354       .  A
C155        C192   1.460       .  S
C155        C396   1.487       .  S
N156        N173   1.327       .  A
N156        N178   1.319       .  A
N156       Co193   2.092       .  S
C157        N182   1.340       .  A
C157        C195   1.459       .  S
C157        H202   1.082       .  S
H158        C199   1.081       .  S
C159        N183   1.338       .  A
C159        C163   1.458       .  S
C159        H188   1.082       .  S
Co160       N178   2.077       .  S
Co160       N168   2.081       .  S
Co160       N200   2.079       .  S
Co160       N176   2.075       .  S
Co160      Cl204   2.438       .  S
N161        C199   1.342       .  A
N161        N168   1.321       .  A
N161       Co162   2.084       .  S
Co162       N165   2.079       .  S
Co162       N182   2.077       .  S
Co162       N169   2.079       .  S
Co162      Cl204   2.460       .  S
C163        N201   1.350       .  A
C163        C277   1.476       .  S
N164        N171   1.321       .  A
N164        N194   1.324       .  A
N164       Co197   2.088       .  S
N165        N183   1.319       .  A
N165        N201   1.324       .  A
N166        C195   1.348       .  A
N166        N176   1.322       .  A
H167        C192   1.082       .  S
N168        N189   1.323       .  A
N169        N187   1.321       .  A
N169        N174   1.324       .  A
C170        N174   1.347       .  A
C170        C198   1.458       .  S
C170        C245   1.468       .  S
N171        C186   1.340       .  A
N171       Co193   2.085       .  S
C172        N200   1.337       .  A
C172        C175   1.453       .  S
C172        H206   1.081       .  S
C175        N196   1.350       .  A
C175        C373   1.469       .  S
N176        N182   1.318       .  A
N177        C203   1.343       .  A
N177        N179   1.319       .  A
N177       Co193   2.085       .  S
N178        C192   1.337       .  A
N179        N207   1.321       .  A
N179       Co197   2.072       .  S
H180        C203   1.081       .  S
H181        C198   1.081       .  S
N183       Co197   2.078       .  S
N184        N196   1.326       .  A
N184        N200   1.321       .  A
N184       Co193   2.083       .  S
C185        N189   1.347       .  A
C185        C199   1.459       .  S
C185        C460   1.470       .  S
C186        C205   1.461       .  S
C186        H190   1.082       .  S
N187        C198   1.341       .  A
N187       Co197   2.089       .  S
C191        N207   1.347       .  A
C191        C203   1.460       .  S
C191        C309   1.473       .  S
Co193      Cl204   2.464       .  S
N194        C205   1.350       .  A
C195        C437   1.473       .  S
Co197      Cl204   2.439       .  S
C205        C332   1.477       .  S
C208        N209   1.361       .  A
C208       N1404   1.360       .  A
C208        C853   1.476       .  S
N209        C210   1.358       .  A
C210        N211   1.353       .  A
C210        C428   1.468       .  S
N211       C1403   1.352       .  A
C212        N213   1.355       .  A
C212       N1402   1.352       .  A
C212        C469   1.463       .  S
N213       C1399   1.360       .  A
C214        N219   1.361       .  A
C214       N1406   1.362       .  A
C214        C533   1.481       .  S
N215        C216   1.359       .  A
N215       C1405   1.362       .  A
C216       N1408   1.356       .  A
C216        C268   1.475       .  S
N217        C218   1.355       .  A
N217       C1407   1.356       .  A
C218        N219   1.358       .  A
C218        C236   1.477       .  S
C220        N225   1.363       .  A
C220       N1412   1.362       .  A
C220        C501   1.481       .  S
N221        C222   1.359       .  A
N221       C1411   1.362   1_554  A
C222       N1414   1.354   1_554  A
C222        C405   1.477       .  S
N223        C224   1.354       .  A
N223       C1413   1.354       .  A
C224        N225   1.359       .  A
C224        C364   1.478       .  S
C226        N227   1.359       .  A
C226       N1422   1.358       .  A
C226       C1109   1.471       .  S
N227        C228   1.360       .  A
C228        N229   1.355       .  A
C228        C300   1.484       .  S
N229       C1421   1.353       .  A
C230        N231   1.354       .  A
C230       N1420   1.353       .  A
C230        C341   1.464       .  S
N231       C1417   1.358       .  A
C232        H242   1.085       .  S
C232        C233   1.401       .  A
C232        C237   1.404       .  A
C233        C238   1.479       .  S
C233        C234   1.409       .  A
C234        C235   1.401       .  A
C234        C239   1.507       .  S
C235        H240   1.084       .  S
C235        C236   1.404       .  A
C236        C237   1.419       .  A
C237        C241   1.508       .  S
C238        C243   1.410       .  A
C238        C247   1.402       .  A
C239        H255   1.110       .  S
C239        H256   1.110       .  S
C239        H257   1.111       .  S
C241        H252   1.110       .  S
C241        H253   1.111       .  S
C241        H254   1.105       .  S
C243        C244   1.404       .  A
C243        C248   1.505       .  S
C244        H249   1.084       .  S
C244        C245   1.403       .  A
C245        C246   1.411       .  A
C246        C247   1.400       .  A
C246        C250   1.506       .  S
C247        H251   1.085       .  S
C248        H258   1.111       .  S
C248        H259   1.110       .  S
C248        H260   1.110       .  S
C250        H261   1.109       .  S
C250        H262   1.108       .  S
C250        H263   1.111       .  S
C264        H274   1.084       .  S
C264        C265   1.401       .  A
C264        C269   1.405       .  A
C265        C270   1.475       .  S
C265        C266   1.410       .  A
C266        C267   1.398       .  A
C266        C271   1.509       .  S
C267        H272   1.084       .  S
C267        C268   1.403       .  A
C268        C269   1.417       .  A
C269        C273   1.505       .  S
C270        C275   1.407       .  A
C270        C279   1.399       .  A
C271        H287   1.110       .  S
C271        H288   1.109       .  S
C271        H289   1.111       .  S
C273        H284   1.110       .  S
C273        H285   1.111       .  S
C273        H286   1.104       .  S
C275        C276   1.402       .  A
C275        C280   1.506       .  S
C276        H281   1.084       .  S
C276        C277   1.406       .  A
C277        C278   1.417       .  A
C278        C279   1.401       .  A
C278        C282   1.506       .  S
C279        H283   1.085       .  S
C280        H290   1.111       .  S
C280        H291   1.110       .  S
C280        H292   1.109       .  S
C282        H293   1.110       .  S
C282        H294   1.102       .  S
C282        H295   1.111       .  S
C296        H306   1.085       .  S
C296        C297   1.398       .  A
C296        C301   1.401       .  A
C297        C302   1.476       .  S
C297        C298   1.409       .  A
C298        C299   1.402       .  A
C298        C303   1.507       .  S
C299        H304   1.084       .  S
C299        C300   1.407       .  A
C300        C301   1.420       .  A
C301        C305   1.509       .  S
C302        C307   1.409       .  A
C302        C311   1.399       .  A
C303        H319   1.110       .  S
C303        H320   1.110       .  S
C303        H321   1.111       .  S
C305        H316   1.111       .  S
C305        H317   1.109       .  S
C305        H318   1.110       .  S
C307        C308   1.405       .  A
C307        C312   1.505       .  S
C308        H313   1.084       .  S
C308        C309   1.405       .  A
C309        C310   1.415       .  A
C310        C311   1.398       .  A
C310        C314   1.508       .  S
C311        H315   1.085       .  S
C312        H322   1.111       .  S
C312        H323   1.110       .  S
C312        H324   1.110       .  S
C314        H325   1.110       .  S
C314        H326   1.106       .  S
C314        H327   1.110       .  S
C328        H338   1.085       .  S
C328        C329   1.399       .  A
C328        C333   1.401       .  A
C329        C334   1.476       .  S
C329        C330   1.408       .  A
C330        C331   1.403       .  A
C330        C335   1.506       .  S
C331        H336   1.084       .  S
C331        C332   1.406       .  A
C332        C333   1.416       .  A
C333        C337   1.506       .  S
C334        C339   1.411       .  A
C334        C343   1.399       .  A
C335        H351   1.110       .  S
C335        H352   1.110       .  S
C335        H353   1.111       .  S
C337        H348   1.110       .  S
C337        H349   1.111       .  S
C337        H350   1.105       .  S
C339        C340   1.405       .  A
C339        C344   1.505       .  S
C340        H345   1.084       .  S
C340        C341   1.402       .  A
C341        C342   1.413       .  A
C342        C343   1.398       .  A
C342        C346   1.509       .  S
C343        H347   1.085       .  S
C344        H354   1.111       .  S
C344        H355   1.110       .  S
C344        H356   1.110       .  S
C346        H357   1.110       .  S
C346        H358   1.108       .  S
C346        H359   1.110       .  S
C360        H370   1.085       .  S
C360        C361   1.398       .  A
C360        C365   1.401       .  A
C361        C366   1.477       .  S
C361        C362   1.411       .  A
C362        C363   1.404       .  A
C362        C367   1.507       .  S
C363        H368   1.084       .  S
C363        C364   1.404       .  A
C364        C365   1.418       .  A
C365        C369   1.508       .  S
C366        C371   1.411       .  A
C366        C375   1.400       .  A
C367        H383   1.110       .  S
C367        H384   1.110       .  S
C367        H385   1.111       .  S
C369        H380   1.110       .  S
C369        H381   1.111       .  S
C369        H382   1.108       .  S
C371        C372   1.400       .  A
C371        C376   1.507       .  S
C372        H377   1.085       .  S
C372        C373   1.401       .  A
C373        C374   1.416       .  A
C374        C375   1.404       .  A
C374        C378   1.508       .  S
C375        H379   1.084       .  S
C376        H386   1.111       .  S
C376        H387   1.110       .  S
C376        H388   1.109       .  S
C378        H389   1.110       .  S
C378        H390   1.106       .  S
C378        H391   1.110       .  S
C392        H402   1.085       .  S
C392        C393   1.401       .  A
C392        C397   1.405       .  A
C393        C398   1.481       .  S
C393        C394   1.407       .  A
C394        C395   1.401       .  A
C394        C399   1.507       .  S
C395        H400   1.083       .  S
C395        C396   1.409       .  A
C396        C397   1.421       .  A
C397        C401   1.507       .  S
C398        C403   1.410       .  A
C398        C407   1.403       .  A
C399        H415   1.110       .  S
C399        H416   1.110       .  S
C399        H417   1.111       .  S
C401        H412   1.111       .  S
C401        H413   1.110       .  S
C401        H414   1.101       .  S
C403        C404   1.399       .  A
C403        C408   1.508       .  S
C404        H409   1.084       .  S
C404        C405   1.404       .  A
C405        C406   1.417       .  A
C406        C407   1.407       .  A
C406        C410   1.507       .  S
C407        H411   1.084       .  S
C408        H418   1.111       .  S
C408        H419   1.110       .  S
C408        H420   1.110       .  S
C410        H421   1.111       .  S
C410        H422   1.106       .  S
C410        H423   1.110       .  S
C424        H434   1.084       .  S
C424        C425   1.401       .  A
C424        C429   1.402       .  A
C425        C430   1.473       .  S
C425        C426   1.409       .  A
C426        C427   1.398       .  A
C426        C431   1.507       .  S
C427        H432   1.085       .  S
C427        C428   1.403       .  A
C428        C429   1.414       .  A
C429        C433   1.506       .  S
C430        C435   1.407       .  A
C430        C439   1.400       .  A
C431        H447   1.110       .  S
C431        H448   1.110       .  S
C431        H449   1.111       .  S
C433        H444   1.110       .  S
C433        H445   1.111       .  S
C433        H446   1.106       .  S
C435        C436   1.401       .  A
C435        C440   1.506       .  S
C436        H441   1.084       .  S
C436        C437   1.405       .  A
C437        C438   1.417       .  A
C438        C439   1.401       .  A
C438        C442   1.509       .  S
C439        H443   1.085       .  S
C440        H450   1.111       .  S
C440        H451   1.110       .  S
C440        H452   1.110       .  S
C442        H453   1.110       .  S
C442        H454   1.105       .  S
C442        H455   1.111       .  S
C456        H466   1.085       .  S
C456        C457   1.400       .  A
C456        C461   1.400       .  A
C457        C462   1.473       .  S
C457        C458   1.408       .  A
C458        C459   1.402       .  A
C458        C463   1.506       .  S
C459        H464   1.084       .  S
C459        C460   1.404       .  A
C460        C461   1.414       .  A
C461        C465   1.506       .  S
C462        C467   1.410       .  A
C462        C471   1.398       .  A
C463        H479   1.110       .  S
C463        H480   1.110       .  S
C463        H481   1.111       .  S
C465        H476   1.110       .  S
C465        H477   1.111       .  S
C465        H478   1.106       .  S
C467        C468   1.405       .  A
C467        C472   1.505       .  S
C468        H473   1.084       .  S
C468        C469   1.402       .  A
C469        C470   1.413       .  A
C470        C471   1.396       .  A
C470        C474   1.509       .  S
C471        H475   1.085       .  S
C472        H482   1.111       .  S
C472        H483   1.110       .  S
C472        H484   1.110       .  S
C474        H485   1.110       .  S
C474        H486   1.108       .  S
C474        H487   1.110       .  S
C488        H498   1.084       .  S
C488        C493   1.407       .  A
C488       C1680   1.398   1_554  A
C489        C494   1.483       .  S
C489        C490   1.408       .  A
C489       C1679   1.398       .  A
C490        C491   1.404       .  A
C490        C495   1.506       .  S
C491        H496   1.083       .  S
C491       C1683   1.410       .  A
C492        C493   1.428   1_556  A
C492       C1682   1.411       .  A
C493        C497   1.509       .  S
C494        C503   1.400       .  A
C494       C1690   1.410       .  A
C495        H511   1.110       .  S
C495        H512   1.110       .  S
C495        H513   1.111       .  S
C497        H508   1.110       .  S
C497        H509   1.111       .  S
C497        H510   1.110       .  S
C499        C500   1.406       .  A
C499       C1685   1.411   1_554  A
C499        C504   1.506       .  S
C500        H505   1.084       .  S
C500       C1692   1.406   1_554  A
C501        C502   1.418       .  A
C501       C1691   1.406       .  A
C502        C503   1.403       .  A
C502        C506   1.508       .  S
C503        H507   1.085       .  S
C504        H514   1.111       .  S
C504        H515   1.110       .  S
C504        H516   1.110       .  S
C506        H517   1.111       .  S
C506        H518   1.106       .  S
C506        H519   1.110       .  S
C520        H530   1.085       .  S
C520        C525   1.403       .  A
C520       C1712   1.400   1_554  A
C521        C526   1.479       .  S
C521        C522   1.409       .  A
C521       C1711   1.400       .  A
C522        C523   1.403       .  A
C522        C527   1.506       .  S
C523        H528   1.084       .  S
C523       C1715   1.406       .  A
C524        C525   1.417       .  A
C524       C1714   1.406   1_554  A
C525        C529   1.508       .  S
C526        C531   1.409       .  A
C526       C1726   1.400       .  A
C527        H543   1.110       .  S
C527        H544   1.110       .  S
C527        H545   1.111       .  S
C529        H540   1.111       .  S
C529        H541   1.110       .  S
C529        H542   1.106       .  S
C531        C532   1.402       .  A
C531        C536   1.506       .  S
C532        H537   1.084       .  S
C532        C533   1.406       .  A
C533       C1725   1.418       .  A
C534        C535   1.403       .  A
C534       C1724   1.418       .  A
C534        C538   1.506       .  S
C535        H539   1.085       .  S
C535       C1717   1.400   1_554  A
C536        H546   1.111       .  S
C536        H547   1.110       .  S
C536        H548   1.110       .  S
C538        H549   1.110       .  S
C538        H550   1.104       .  S
C538        H551   1.111       .  S
C552        H562   1.085       .  S
C552        C553   1.396       .  A
C552        C557   1.400       .  A
C553        C558   1.474       .  S
C553        C554   1.408       .  A
C554        C555   1.403       .  A
C554        C559   1.506       .  S
C555        H560   1.084       .  S
C555        C556   1.406       .  A
C556        C557   1.423       .  A
C557        C561   1.510       .  S
C558        C563   1.407       .  A
C558        C567   1.397       .  A
C559        H575   1.110       .  S
C559        H576   1.110       .  S
C559        H577   1.111       .  S
C561        H572   1.109   1_554  S
C561        H573   1.111       .  S
C561       H1765   1.110   1_554  S
C563        C564   1.401       .  A
C563        C568   1.507       .  S
C564        H569   1.082       .  S
C564        C565   1.407       .  A
C565        C566   1.423       .  A
C566        C567   1.402       .  A
C566        C570   1.509       .  S
C567        H571   1.085       .  S
C568        H578   1.111       .  S
C568        H579   1.110       .  S
C568        H580   1.109       .  S
C570        H581   1.110       .  S
C570        H582   1.109       .  S
C570        H583   1.111       .  S
H574       C1752   1.110       .  S
C584        H594   1.085       .  S
C584        C585   1.400       .  A
C584        C589   1.405       .  A
C585        C590   1.479       .  S
C585        C586   1.411       .  A
C586        C587   1.401       .  A
C586        C591   1.508       .  S
C587        H592   1.085       .  S
C587        C588   1.402       .  A
C588        C589   1.418       .  A
C589        C593   1.507       .  S
C590        C595   1.411       .  A
C590        C599   1.399       .  A
C591        H607   1.110       .  S
C591        H608   1.109       .  S
C591        H609   1.111       .  S
C593        H604   1.111       .  S
C593        H605   1.110       .  S
C593        H606   1.105       .  S
C595        C596   1.404       .  A
C595        C600   1.506       .  S
C596        H601   1.084       .  S
C596        C597   1.404       .  A
C597        C598   1.418       .  A
C598        C599   1.401       .  A
C598        C602   1.508       .  S
C599        H603   1.085       .  S
C600        H610   1.111       .  S
C600        H611   1.110       .  S
C600        H612   1.109       .  S
C602        H613   1.111       .  S
C602        H614   1.108       .  S
C602        H615   1.110       .  S
C616        H626   1.084       .  S
C616        C617   1.403       .  A
C616        C621   1.401       .  A
C617        C622   1.478       .  S
C617        C618   1.410   1_655  A
C618        C619   1.403       .  A
C618        C623   1.506       .  S
C619        H624   1.084       .  S
C619        C620   1.404       .  A
C620        C621   1.410   1_455  A
C621        C625   1.507       .  S
C622        C627   1.411       .  A
C622        C631   1.400   1_655  A
C623        H639   1.109       .  S
C623        H640   1.110   1_455  S
C623        H641   1.111       .  S
C625        H636   1.109       .  S
C625        H637   1.111       .  S
C625        H638   1.111   1_655  S
C627        C628   1.402       .  A
C627        C632   1.507       .  S
C628        H633   1.084       .  S
C628        C629   1.405       .  A
C629        C630   1.418       .  A
C630        C631   1.402   1_655  A
C630        C634   1.509   1_655  S
C631        H635   1.084       .  S
C632        H642   1.111       .  S
C632        H643   1.109       .  S
C632        H644   1.110       .  S
C634        H645   1.108       .  S
C634        H647   1.111       .  S
C634       H1837   1.110       .  S
H646       C1825   1.110       .  S
C648        H658   1.085       .  S
C648        C649   1.400       .  A
C648        C653   1.403       .  A
C649        C654   1.474       .  S
C649        C650   1.407       .  A
C650        C651   1.397       .  A
C650        C655   1.508       .  S
C651        H656   1.084       .  S
C651        C652   1.407       .  A
C652        C653   1.419       .  A
C653        C657   1.508       .  S
C654        C659   1.406   1_655  A
C654        C663   1.399       .  A
C655        H671   1.110       .  S
C655        H672   1.110   1_655  S
C655        H673   1.111   1_655  S
C657        H668   1.111       .  S
C657        H669   1.110       .  S
C657        H670   1.106       .  S
C659        C660   1.400       .  A
C659        C664   1.507       .  S
C660        H665   1.082       .  S
C660        C661   1.409       .  A
C661        C662   1.420   1_455  A
C662        C663   1.403       .  A
C662        C666   1.508       .  S
C663        H667   1.084       .  S
C664        H674   1.111       .  S
C664        H675   1.110       .  S
C664        H676   1.110       .  S
C666        H677   1.110       .  S
C666        H678   1.110       .  S
C666        H679   1.111       .  S
C680        H690   1.084       .  S
C680        C681   1.401       .  A
C680        C685   1.405       .  A
C681        C686   1.479       .  S
C681        C682   1.408       .  A
C682        C683   1.401       .  A
C682        C687   1.507       .  S
C683        H688   1.084       .  S
C683        C684   1.407       .  A
C684        C685   1.417       .  A
C685        C689   1.507       .  S
C686        C691   1.411       .  A
C686        C695   1.399       .  A
C687        H703   1.110       .  S
C687        H704   1.110       .  S
C687        H705   1.111       .  S
C689        H700   1.110       .  S
C689        H701   1.111       .  S
C689        H702   1.110       .  S
C691        C692   1.402       .  A
C691        C696   1.507       .  S
C692        H697   1.084       .  S
C692        C693   1.402       .  A
C693        C694   1.417       .  A
C694        C695   1.405       .  A
C694        C698   1.507       .  S
C695        H699   1.084       .  S
C696        H706   1.111       .  S
C696        H707   1.110       .  S
C696        H708   1.110       .  S
C698        H709   1.111       .  S
C698        H710   1.110       .  S
C698        H711   1.107       .  S
C712        H722   1.085       .  S
C712        C713   1.401       .  A
C712        C717   1.401       .  A
C713        C718   1.474       .  S
C713        C714   1.408       .  A
C714        C715   1.400       .  A
C714        C719   1.506       .  S
C715        H720   1.084       .  S
C715        C716   1.403       .  A
C716        C717   1.414       .  A
C717        C721   1.509       .  S
C718        C723   1.406       .  A
C718        C727   1.399       .  A
C719        H735   1.110       .  S
C719        H736   1.110       .  S
C719        H737   1.111       .  S
C721        H732   1.111       .  S
C721        H733   1.110       .  S
C721        H734   1.107       .  S
C723        C724   1.398       .  A
C723        C728   1.508       .  S
C724        H729   1.083       .  S
C724        C725   1.411       .  A
C725        C726   1.423       .  A
C726        C727   1.405       .  A
C726        C730   1.507       .  S
C727        H731   1.084       .  S
C728        H738   1.111       .  S
C728        H739   1.110       .  S
C728        H740   1.110       .  S
C730        H741   1.110       .  S
C730        H742   1.110       .  S
C730        H743   1.111       .  S
C744        H754   1.084       .  S
C744        C745   1.399       .  A
C744        C749   1.401       .  A
C745        C750   1.477       .  S
C745        C746   1.409       .  A
C746        C747   1.402       .  A
C746        C751   1.507       .  S
C747        H752   1.084       .  S
C747        C748   1.407       .  A
C748        C749   1.419       .  A
C749        C753   1.509       .  S
C750        C755   1.409       .  A
C750        C759   1.401       .  A
C751        H767   1.109       .  S
C751        H768   1.110       .  S
C751        H769   1.111       .  S
C753        H764   1.111       .  S
C753        H765   1.108       .  S
C753        H766   1.110       .  S
C755        C756   1.402       .  A
C755        C760   1.507       .  S
C756        H761   1.084       .  S
C756        C757   1.405       .  A
C757        C758   1.415       .  A
C758        C759   1.400       .  A
C758        C762   1.509       .  S
C759        H763   1.085       .  S
C760        H770   1.111       .  S
C760        H771   1.109       .  S
C760        H772   1.110       .  S
C762        H773   1.111       .  S
C762        H774   1.105       .  S
C762        H775   1.110       .  S
C776        H786   1.085       .  S
C776        C777   1.398       .  A
C776        C781   1.397       .  A
C777        C782   1.472       .  S
C777        C778   1.410       .  A
C778        C779   1.403       .  A
C778        C783   1.505       .  S
C779        H784   1.084       .  S
C779        C780   1.401       .  A
C780        C781   1.414       .  A
C781        C785   1.509       .  S
C782        C787   1.408       .  A
C782        C791   1.401       .  A
C783        H799   1.110       .  S
C783        H800   1.110       .  S
C783        H801   1.111       .  S
C785        H796   1.110       .  S
C785        H797   1.110       .  S
C785        H798   1.108       .  S
C787        C788   1.399       .  A
C787        C792   1.507       .  S
C788        H793   1.084       .  S
C788        C789   1.404       .  A
C789        C790   1.416       .  A
C790        C791   1.402       .  A
C790        C794   1.508       .  S
C791        H795   1.085       .  S
C792        H802   1.111       .  S
C792        H803   1.110       .  S
C792        H804   1.110       .  S
C794        H805   1.111       .  S
C794        H806   1.106       .  S
C794        H807   1.110       .  S
C808        H818   1.085       .  S
C808        C813   1.399       .  A
C808       C2000   1.398   1_554  A
C809        C814   1.472       .  S
C809        C810   1.408       .  A
C809       C1999   1.398       .  A
C810        C811   1.402       .  A
C810        C815   1.506       .  S
C811        H816   1.084       .  S
C811       C2003   1.405       .  A
C812        C813   1.417       .  A
C812       C2002   1.406   1_554  A
C813        C817   1.509       .  S
C814        C819   1.408       .  A
C814       C2014   1.399       .  A
C815        H831   1.110       .  S
C815        H832   1.109       .  S
C815        H833   1.111       .  S
C817        H828   1.110       .  S
C817        H829   1.111       .  S
C817        H830   1.109       .  S
C819        C820   1.398       .  A
C819        C824   1.509       .  S
C820        H825   1.084       .  S
C820       C2012   1.407       .  A
C821        C822   1.418   1_556  A
C821       C2011   1.407       .  A
C822        C823   1.402       .  A
C822        C826   1.507       .  S
C823        H827   1.085       .  S
C823       C2005   1.399   1_554  A
C824        H834   1.111       .  S
C824        H835   1.110       .  S
C824        H836   1.109       .  S
C826        H837   1.110       .  S
C826        H838   1.107       .  S
C826        H839   1.111       .  S
C840        H850   1.085       .  S
C840        C845   1.402       .  A
C840       C2032   1.400       .  A
C841        C846   1.473       .  S
C841        C842   1.408   1_556  A
C841       C2031   1.399       .  A
C842        C843   1.399       .  A
C842        C847   1.507       .  S
C843        H848   1.084       .  S
C843        C844   1.404   1_554  A
C844       C2036   1.418       .  A
C845       C2035   1.418       .  A
C845        C849   1.508       .  S
C846        C851   1.408   1_556  A
C846       C2046   1.399       .  A
C847        H863   1.110       .  S
C847        H864   1.110       .  S
C847        H865   1.111       .  S
C849        H860   1.111       .  S
C849        H861   1.110       .  S
C849        H862   1.106       .  S
C851        C852   1.399       .  A
C851        C856   1.507       .  S
C852        H857   1.084       .  S
C852       C2044   1.405       .  A
C853        C854   1.417       .  A
C853       C2043   1.406       .  A
C854        C855   1.402       .  A
C854        C858   1.507       .  S
C855        H859   1.085       .  S
C855       C2037   1.399       .  A
C856        H866   1.111       .  S
C856        H867   1.110       .  S
C856        H868   1.110       .  S
C858        H869   1.110       .  S
C858        H870   1.105       .  S
C858        H871   1.111       .  S
C872        H882   1.085       .  S
C872        C873   1.399       .  A
C872        C877   1.397       .  A
C873        C878   1.473       .  S
C873        C874   1.410       .  A
C874        C875   1.402       .  A
C874        C879   1.506       .  S
C875        H880   1.084       .  S
C875        C876   1.403       .  A
C876        C877   1.415       .  A
C877        C881   1.509       .  S
C878        C883   1.408       .  A
C878        C887   1.400       .  A
C879        H895   1.110       .  S
C879        H896   1.110       .  S
C879        H897   1.111       .  S
C881        H892   1.111       .  S
C881        H893   1.110       .  S
C881        H894   1.107       .  S
C883        C884   1.400       .  A
C883        C888   1.507       .  S
C884        H889   1.084       .  S
C884        C885   1.405       .  A
C885        C886   1.417       .  A
C886        C887   1.400       .  A
C886        C890   1.510       .  S
C887        H891   1.085       .  S
C888        H898   1.111       .  S
C888        H899   1.110       .  S
C888        H900   1.110       .  S
C890        H901   1.111       .  S
C890        H902   1.106       .  S
C890        H903   1.110       .  S
C904        H914   1.085       .  S
C904        C905   1.399       .  A
C904        C909   1.401       .  A
C905        C910   1.472       .  S
C905        C906   1.408       .  A
C906        C907   1.399       .  A
C906        C911   1.507       .  S
C907        H912   1.084       .  S
C907        C908   1.404       .  A
C908        C909   1.418       .  A
C909        C913   1.509       .  S
C910        C915   1.410       .  A
C910        C919   1.397       .  A
C911        H927   1.110       .  S
C911        H928   1.110       .  S
C911        H929   1.111       .  S
C913        H924   1.111       .  S
C913        H925   1.110       .  S
C913        H926   1.104       .  S
C915        C916   1.399       .  A
C915        C920   1.507       .  S
C916        H921   1.084       .  S
C916        C917   1.402       .  A
C917        C918   1.420       .  A
C918        C919   1.401       .  A
C918        C922   1.509       .  S
C919        H923   1.085       .  S
C920        H930   1.111       .  S
C920        H931   1.110       .  S
C920        H932   1.110       .  S
C922        H933   1.111       .  S
C922        H934   1.105       .  S
C922        H935   1.110       .  S
C936        H946   1.084       .  S
C936        C937   1.402       .  A
C936        C941   1.405       .  A
C937        C942   1.478       .  S
C937        C938   1.408       .  A
C938        C939   1.399       .  A
C938        C943   1.507       .  S
C939        H944   1.084       .  S
C939        C940   1.404       .  A
C940        C941   1.417       .  A
C941        C945   1.508       .  S
C942        C947   1.409       .  A
C942        C951   1.398       .  A
C943        H959   1.110       .  S
C943        H960   1.110       .  S
C943        H961   1.111       .  S
C945        H956   1.111       .  S
C945        H957   1.110       .  S
C945        H958   1.106       .  S
C947        C948   1.402       .  A
C947        C952   1.507       .  S
C948        H953   1.084       .  S
C948        C949   1.405       .  A
C949        C950   1.421       .  A
C950        C951   1.405       .  A
C950        C954   1.506       .  S
C951        H955   1.084       .  S
C952        H962   1.111       .  S
C952        H963   1.110       .  S
C952        H964   1.110       .  S
C954        H965   1.111       .  S
C954        H966   1.110       .  S
C954        H967   1.107       .  S
C968        H978   1.084       .  S
C968        C969   1.397       .  A
C968        C973   1.403       .  A
C969        C974   1.475       .  S
C969        C970   1.408       .  A
C970        C971   1.400       .  A
C970        C975   1.508       .  S
C971        H976   1.082       .  S
C971        C972   1.407       .  A
C972        C973   1.423       .  A
C973        C977   1.508       .  S
C974        C979   1.406       .  A
C974        C983   1.400       .  A
C975        H991   1.110       .  S
C975        H992   1.110       .  S
C975        H993   1.111       .  S
C977        H988   1.110       .  S
C977        H989   1.111       .  S
C977        H990   1.110       .  S
C979        C980   1.397       .  A
C979        C984   1.508       .  S
C980        H985   1.084       .  S
C980        C981   1.407       .  A
C981        C982   1.421       .  A
C982        C983   1.406       .  A
C982        C986   1.508       .  S
C983        H987   1.084       .  S
C984        H994   1.111       .  S
C984        H995   1.110       .  S
C984        H996   1.110       .  S
C986        H997   1.111       .  S
C986        H998   1.110       .  S
C986        H999   1.110       .  S
C1000      H1010   1.084       .  S
C1000      C1005   1.404       .  A
C1000      C2192   1.400       .  A
C1001      C1006   1.475       .  S
C1001      C1002   1.409       .  A
C1001      C2191   1.400   1_554  A
C1002      C1003   1.399       .  A
C1002      C1007   1.508       .  S
C1003      H1008   1.084       .  S
C1003      C1004   1.405       .  A
C1004      C2196   1.418   1_554  A
C1005      C2195   1.418       .  A
C1005      C1009   1.507       .  S
C1006      C1011   1.409       .  A
C1006      C2206   1.398   1_554  A
C1007      H1023   1.110       .  S
C1007      H1024   1.109       .  S
C1007      H1025   1.111       .  S
C1009      H1020   1.111       .  S
C1009      H1021   1.110       .  S
C1009      H1022   1.107       .  S
C1011      C1012   1.404       .  A
C1011      C1016   1.506       .  S
C1012      H1017   1.084       .  S
C1012      C1013   1.405       .  A
C1013      C2205   1.420   1_554  A
C1014      C1015   1.399       .  A
C1014      C2204   1.420       .  A
C1014      C1018   1.510       .  S
C1015      H1019   1.085       .  S
C1015      C2197   1.398       .  A
C1016      H1026   1.111       .  S
C1016      H1027   1.110       .  S
C1016      H1028   1.110       .  S
C1018      H1029   1.110       .  S
C1018      H1030   1.104       .  S
C1018      H1031   1.111       .  S
C1032      H1042   1.084       .  S
C1032      C1033   1.398       .  A
C1032      C1037   1.401       .  A
C1033      C1038   1.475       .  S
C1033      C1034   1.408       .  A
C1034      C1035   1.403       .  A
C1034      C1039   1.506       .  S
C1035      H1040   1.084       .  S
C1035      C1036   1.407       .  A
C1036      C1037   1.419       .  A
C1037      C1041   1.509       .  S
C1038      C1043   1.410       .  A
C1038      C1047   1.399       .  A
C1039      H1055   1.110       .  S
C1039      H1056   1.110       .  S
C1039      H1057   1.111       .  S
C1041      H1052   1.109       .  S
C1041      H1053   1.111   1_565  S
C1041      H2245   1.110       .  S
C1043      C1044   1.400       .  A
C1043      C1048   1.507       .  S
C1044      H1049   1.084       .  S
C1044      C1045   1.403       .  A
C1045      C1046   1.417       .  A
C1046      C1047   1.404       .  A
C1046      C1050   1.507   1_565  S
C1047      H1051   1.084       .  S
C1048      H1058   1.111       .  S
C1048      H1059   1.110       .  S
C1048      H1060   1.110       .  S
C1050      H1061   1.109       .  S
C1050      H1062   1.111   1_545  S
C1050      H1063   1.111       .  S
H1054      C2232   1.110       .  S
C1064      H1074   1.085       .  S
C1064      C1065   1.401       .  A
C1064      C1069   1.404       .  A
C1065      C1070   1.477       .  S
C1065      C1066   1.408       .  A
C1066      C1067   1.399       .  A
C1066      C1071   1.507   1_565  S
C1067      H1072   1.085       .  S
C1067      C1068   1.404       .  A
C1068      C1069   1.419       .  A
C1069      C1073   1.508       .  S
C1070      C1075   1.412       .  A
C1070      C1079   1.398       .  A
C1071      H1087   1.110       .  S
C1071      H1088   1.110       .  S
C1071      H1089   1.111       .  S
C1073      H1084   1.111       .  S
C1073      H1085   1.110       .  S
C1073      H1086   1.104       .  S
C1075      C1076   1.403       .  A
C1075      C1080   1.506       .  S
C1076      H1081   1.085       .  S
C1076      C1077   1.402       .  A
C1077      C1078   1.418       .  A
C1078      C1079   1.401       .  A
C1078      C1082   1.509       .  S
C1079      H1083   1.085       .  S
C1080      H1090   1.111       .  S
C1080      H1091   1.110       .  S
C1080      H1092   1.110       .  S
C1082      H1093   1.111       .  S
C1082      H1094   1.106       .  S
C1082      H1095   1.110   1_565  S
C1096      H1106   1.085       .  S
C1096      C1101   1.403       .  A
C1096      C2288   1.400   1_554  A
C1097      C1102   1.476       .  S
C1097      C1098   1.408       .  A
C1097      C2287   1.400       .  A
C1098      C1099   1.400       .  A
C1098      C1103   1.507       .  S
C1099      H1104   1.084       .  S
C1099      C2291   1.405       .  A
C1100      C1101   1.419   1_556  A
C1100      C2290   1.405       .  A
C1101      C1105   1.508       .  S
C1102      C1107   1.410       .  A
C1102      C2302   1.398       .  A
C1103      H1119   1.110       .  S
C1103      H1120   1.110       .  S
C1103      H1121   1.111       .  S
C1105      H1116   1.111       .  S
C1105      H1117   1.110       .  S
C1105      H1118   1.106       .  S
C1107      C1108   1.404       .  A
C1107      C1112   1.506       .  S
C1108      H1113   1.084       .  S
C1108      C1109   1.403       .  A
C1109      C2301   1.417       .  A
C1110      C1111   1.399       .  A
C1110      C2300   1.417   1_554  A
C1110      C1114   1.509       .  S
C1111      H1115   1.085       .  S
C1111      C2293   1.398   1_554  A
C1112      H1122   1.111       .  S
C1112      H1123   1.110       .  S
C1112      H1124   1.110       .  S
C1114      H1125   1.110       .  S
C1114      H1126   1.106       .  S
C1114      H1127   1.111       .  S
C1128      H1138   1.084       .  S
C1128      C1129   1.398       .  A
C1128      C1133   1.401       .  A
C1129      C1134   1.476       .  S
C1129      C1130   1.409       .  A
C1130      C1131   1.403       .  A
C1130      C1135   1.506       .  S
C1131      H1136   1.084       .  S
C1131      C1132   1.405       .  A
C1132      C1133   1.419       .  A
C1133      C1137   1.509       .  S
C1134      C1139   1.411       .  A
C1134      C1143   1.399       .  A
C1135      H1151   1.110       .  S
C1135      H1152   1.110       .  S
C1135      H1153   1.111       .  S
C1137      H1148   1.108       .  S
C1137      H1149   1.111       .  S
C1137      H1150   1.110       .  S
C1139      C1140   1.400       .  A
C1139      C1144   1.508       .  S
C1140      H1145   1.085       .  S
C1140      C1141   1.402       .  A
C1141      C1142   1.418       .  A
C1142      C1143   1.403       .  A
C1142      C1146   1.508       .  S
C1143      H1147   1.084       .  S
C1144      H1154   1.111       .  S
C1144      H1155   1.110       .  S
C1144      H1156   1.110       .  S
C1146      H1157   1.110       .  S
C1146      H1158   1.105       .  S
C1146      H1159   1.111       .  S
C1160      H1170   1.085       .  S
C1160      C1161   1.399       .  A
C1160      C1165   1.402       .  A
C1161      C1166   1.476       .  S
C1161      C1162   1.407       .  A
C1162      C1163   1.402       .  A
C1162      C1167   1.507       .  S
C1163      H1168   1.083       .  S
C1163      C1164   1.407       .  A
C1164      C1165   1.420       .  A
C1165      C1169   1.510       .  S
C1166      C1171   1.408       .  A
C1166      C1175   1.402       .  A
C1167      H1183   1.110       .  S
C1167      H1184   1.110       .  S
C1167      H1185   1.111       .  S
C1169      H1180   1.111       .  S
C1169      H1181   1.110       .  S
C1169      H1182   1.104       .  S
C1171      C1172   1.397       .  A
C1171      C1176   1.508       .  S
C1172      H1177   1.084       .  S
C1172      C1173   1.404       .  A
C1173      C1174   1.417       .  A
C1174      C1175   1.405       .  A
C1174      C1178   1.508       .  S
C1175      H1179   1.084       .  S
C1176      H1186   1.111       .  S
C1176      H1187   1.110       .  S
C1176      H1188   1.110       .  S
C1178      H1189   1.111       .  S
C1178      H1190   1.106       .  S
C1178      H1191   1.110       .  S
C1192      N1197   1.362       .  A
C1192      C2291   1.477       .  S
N1193      C1194   1.356       .  A
C1194      N1195   1.352       .  A
C1194      C2364   1.473       .  S
C1196      N1197   1.360       .  A
C1196      C2323   1.480       .  S
C1198      N1199   1.360       .  A
C1198      C2195   1.478       .  S
N1199      C1200   1.357       .  A
C1200      C2227   1.481       .  S
N1201      C1202   1.354       .  A
C1202      N1203   1.358       .  A
C1202      C2259   1.474       .  S
C1204      N1222   1.350       .  A
C1204      C1241   1.462   1_565  S
C1204      C2355   1.481       .  S
N1205      N1222   1.323       .  A
N1205      N1227   1.319   1_565  A
N1205     Co1242   2.080       .  S
C1206      N1231   1.339       .  A
C1206      C1244   1.461       .  S
C1206      H1251   1.082       .  S
H1207      C1248   1.082       .  S
C1208      N1232   1.338       .  A
C1208      C1212   1.465       .  S
C1208      H1237   1.081       .  S
Co1209     N1227   2.081       .  S
Co1209     N1217   2.070       .  S
Co1209     N1249   2.071       .  S
Co1209     N1225   2.074       .  S
Co1209    Cl1253   2.442       .  S
N1210      C1248   1.340       .  A
N1210      N1217   1.319       .  A
N1210     Co1211   2.081       .  S
Co1211     N1214   2.076       .  S
Co1211     N1231   2.079       .  S
Co1211     N1218   2.086       .  S
Co1211    Cl1253   2.452       .  S
C1212      N1250   1.349       .  A
C1212      C2163   1.486       .  S
N1213      N1220   1.320       .  A
N1213      N1243   1.323       .  A
N1213     Co1246   2.077       .  S
N1214      N1232   1.319       .  A
N1214      N1250   1.322       .  A
N1215      C1244   1.348       .  A
N1215      N1225   1.321       .  A
H1216      C1241   1.081       .  S
N1217      N1238   1.322       .  A
N1218      N1236   1.318       .  A
N1218      N1223   1.324       .  A
C1219      N1223   1.352       .  A
C1219      C1247   1.463       .  S
C1219      C2140   1.484       .  S
N1220      C1235   1.341   1_545  A
N1220     Co1242   2.082   1_545  S
C1221      N1249   1.338       .  A
C1221      C1224   1.453   1_545  S
C1221      H1255   1.082       .  S
C1224      N1245   1.350       .  A
C1224      C2332   1.471       .  S
N1225      N1231   1.319       .  A
N1226      C1252   1.339   1_545  A
N1226      N1228   1.320       .  A
N1226     Co1242   2.081   1_545  S
N1227      C1241   1.339       .  A
N1228      N1256   1.323       .  A
N1228     Co1246   2.080       .  S
H1229      C1252   1.082       .  S
H1230      C1247   1.078       .  S
N1232     Co1246   2.080       .  S
N1233      N1245   1.325       .  A
N1233      N1249   1.319   1_565  A
N1233     Co1242   2.084       .  S
C1234      N1238   1.346       .  A
C1234      C1248   1.460       .  S
C1234      C2108   1.472       .  S
C1235      C1254   1.457       .  S
C1235      H1239   1.081       .  S
N1236      C1247   1.339       .  A
N1236     Co1246   2.079       .  S
C1240      N1256   1.348   1_565  A
C1240      C1252   1.459       .  S
C1240      C2236   1.476       .  S
Co1242    Cl1253   2.452   1_565  S
N1243      C1254   1.348   1_545  A
C1244      C2076   1.472       .  S
Co1246    Cl1253   2.444       .  S
C1254      C2268   1.471       .  S
C1257      N1262   1.360       .  A
C1257      C2035   1.473       .  S
N1258      C1259   1.357       .  A
C1259      C2172   1.486       .  S
N1260      C1261   1.354       .  A
C1261      N1262   1.356       .  A
C1261      C2131   1.474       .  S
C1263      N1268   1.358       .  A
C1263      C2003   1.474       .  S
N1264      C1265   1.356       .  A
C1265      C2099   1.469       .  S
N1266      C1267   1.354       .  A
C1267      N1268   1.355       .  A
C1267      C2067   1.468       .  S
C1269      N1287   1.348       .  A
C1269      C1306   1.460       .  S
C1269      C1980   1.470       .  S
N1270      N1287   1.321       .  A
N1270      N1292   1.319       .  A
N1270     Co1307   2.077       .  S
C1271      N1296   1.341       .  A
C1271      C1309   1.467       .  S
C1271      H1316   1.081       .  S
H1272      C1313   1.082       .  S
C1273      N1297   1.336       .  A
C1273      C1277   1.461       .  S
C1273      H1302   1.081       .  S
Co1274     N1292   2.077       .  S
Co1274     N1282   2.075   1_455  S
Co1274     N1314   2.075       .  S
Co1274     N1290   2.073   1_455  S
Co1274    Cl1318   2.444       .  S
N1275      C1313   1.344       .  A
N1275      N1282   1.320       .  A
N1275     Co1276   2.093       .  S
Co1276     N1279   2.088   1_655  S
Co1276     N1296   2.083       .  S
Co1276     N1283   2.088   1_655  S
Co1276    Cl1318   2.453   1_655  S
C1277      N1315   1.352   1_455  A
C1277      C1852   1.486       .  S
N1278      N1285   1.319       .  A
N1278      N1308   1.324       .  A
N1278     Co1311   2.078       .  S
N1279      N1297   1.319       .  A
N1279      N1315   1.324   1_455  A
N1280      C1309   1.347       .  A
N1280      N1290   1.320       .  A
H1281      C1306   1.082       .  S
N1282      N1303   1.322       .  A
N1283      N1301   1.320       .  A
N1283      N1288   1.324   1_455  A
C1284      N1288   1.350   1_455  A
C1284      C1312   1.455       .  S
C1284      C1811   1.470       .  S
N1285      C1300   1.338       .  A
N1285     Co1307   2.073       .  S
C1286      N1314   1.338       .  A
C1286      C1289   1.456       .  S
C1286      H1320   1.081       .  S
C1289      N1310   1.350       .  A
C1289      C1948   1.472       .  S
N1290      N1296   1.318       .  A
N1291      C1317   1.340       .  A
N1291      N1293   1.319       .  A
N1291     Co1307   2.078       .  S
N1292      C1306   1.340       .  A
N1293      N1321   1.325       .  A
N1293     Co1311   2.088       .  S
H1294      C1317   1.081       .  S
H1295      C1312   1.082       .  S
N1297     Co1311   2.076       .  S
N1298      N1310   1.324       .  A
N1298      N1314   1.319       .  A
N1298     Co1307   2.077       .  S
C1299      N1303   1.346       .  A
C1299      C1313   1.463       .  S
C1299      C1779   1.474       .  S
C1300      C1319   1.455       .  S
C1300      H1304   1.081       .  S
N1301      C1312   1.338       .  A
N1301     Co1311   2.071       .  S
C1305      N1321   1.350       .  A
C1305      C1317   1.459       .  S
C1305      C1884   1.476       .  S
Co1307    Cl1318   2.451       .  S
N1308      C1319   1.348       .  A
C1309      C1756   1.486       .  S
Co1311    Cl1318   2.445       .  S
C1319      C1907   1.467       .  S
C1322      N1327   1.361       .  A
C1322      C1715   1.478       .  S
N1323      C1324   1.358       .  A
C1324      C1916   1.492       .  S
N1325      C1326   1.354       .  A
C1326      N1327   1.358       .  A
C1326      C1875   1.482       .  S
C1328      N1333   1.361       .  A
C1328      C2012   1.479       .  S
N1329      C1330   1.355       .  A
C1330      C1843   1.480       .  S
N1331      C1332   1.353       .  A
C1332      N1333   1.359       .  A
C1332      C1820   1.478       .  S
C1334      N1339   1.361       .  A
C1334      C1683   1.500       .  S
N1335      C1336   1.360       .  A
C1336      C1788   1.478       .  S
N1337      C1338   1.350       .  A
C1338      N1339   1.358       .  A
C1338      C1747   1.484       .  S
C1340      N1345   1.361       .  A
C1340      C2204   1.475       .  S
N1341      C1342   1.354       .  A
C1342      C1971   1.461       .  S
N1343      C1344   1.354       .  A
C1344      N1345   1.360       .  A
C1344      C1939   1.482       .  S
C1346      N1364   1.354       .  A
C1346      C1383   1.460       .  S
C1346      C1587   1.487       .  S
N1347      N1364   1.327       .  A
N1347      N1369   1.319       .  A
N1347     Co1384   2.092       .  S
C1348      N1373   1.340       .  A
C1348      C1386   1.460       .  S
C1348      H1393   1.082       .  S
H1349      C1390   1.081       .  S
C1350      N1374   1.338       .  A
C1350      C1354   1.458       .  S
C1350      H1379   1.082       .  S
Co1351     N1369   2.077       .  S
Co1351     N1359   2.080       .  S
Co1351     N1391   2.078       .  S
Co1351     N1367   2.074       .  S
Co1351    Cl1395   2.437       .  S
N1352      C1390   1.342       .  A
N1352      N1359   1.321       .  A
N1352     Co1353   2.085       .  S
Co1353     N1356   2.079       .  S
Co1353     N1373   2.077       .  S
Co1353     N1360   2.079       .  S
Co1353    Cl1395   2.460       .  S
C1354      N1392   1.350       .  A
C1354      C1468   1.476       .  S
N1355      N1362   1.321       .  A
N1355      N1385   1.324       .  A
N1355     Co1388   2.088       .  S
N1356      N1374   1.319       .  A
N1356      N1392   1.324       .  A
N1357      C1386   1.348       .  A
N1357      N1367   1.322       .  A
H1358      C1383   1.082       .  S
N1359      N1380   1.323       .  A
N1360      N1378   1.321       .  A
N1360      N1365   1.324       .  A
C1361      N1365   1.347       .  A
C1361      C1389   1.458       .  S
C1361      C1436   1.468       .  S
N1362      C1377   1.340       .  A
N1362     Co1384   2.086       .  S
C1363      N1391   1.337       .  A
C1363      C1366   1.453       .  S
C1363      H1397   1.081       .  S
C1366      N1387   1.350       .  A
C1366      C1564   1.470       .  S
N1367      N1373   1.318       .  A
N1368      C1394   1.343       .  A
N1368      N1370   1.319       .  A
N1368     Co1384   2.085       .  S
N1369      C1383   1.336       .  A
N1370      N1398   1.321       .  A
N1370     Co1388   2.071       .  S
H1371      C1394   1.081       .  S
H1372      C1389   1.081       .  S
N1374     Co1388   2.078       .  S
N1375      N1387   1.326       .  A
N1375      N1391   1.321       .  A
N1375     Co1384   2.084       .  S
C1376      N1380   1.347       .  A
C1376      C1390   1.459       .  S
C1376      C1651   1.470       .  S
C1377      C1396   1.461       .  S
C1377      H1381   1.082       .  S
N1378      C1389   1.341       .  A
N1378     Co1388   2.089       .  S
C1382      N1398   1.346       .  A
C1382      C1394   1.461       .  S
C1382      C1500   1.472       .  S
Co1384    Cl1395   2.465       .  S
N1385      C1396   1.350       .  A
C1386      C1628   1.473       .  S
Co1388    Cl1395   2.439       .  S
C1396      C1523   1.477       .  S
C1399      N1400   1.361   1_554  A
C1399      C2044   1.476       .  S
N1400      C1401   1.357       .  A
C1401      N1402   1.353   1_556  A
C1401      C1619   1.467       .  S
C1403      N1404   1.355       .  A
C1403      C1660   1.463       .  S
C1405      N1410   1.361   1_554  A
C1405      C1724   1.482       .  S
N1406      C1407   1.359       .  A
C1407      C1459   1.475       .  S
N1408      C1409   1.355   1_554  A
C1409      N1410   1.358       .  A
C1409      C1427   1.477       .  S
C1411      N1416   1.363       .  A
C1411      C1692   1.480       .  S
N1412      C1413   1.359       .  A
C1413      C1596   1.477       .  S
N1414      C1415   1.354       .  A
C1415      N1416   1.359       .  A
C1415      C1555   1.478       .  S
C1417      N1418   1.359   1_554  A
C1417      C2300   1.471   1_554  S
N1418      C1419   1.360       .  A
C1419      N1420   1.355   1_556  A
C1419      C1491   1.484       .  S
C1421      N1422   1.354       .  A
C1421      C1532   1.464       .  S
C1423      H1433   1.085       .  S
C1423      C1424   1.401       .  A
C1423      C1428   1.405       .  A
C1424      C1429   1.480       .  S
C1424      C1425   1.409       .  A
C1425      C1426   1.401       .  A
C1425      C1430   1.507       .  S
C1426      H1431   1.084       .  S
C1426      C1427   1.404       .  A
C1427      C1428   1.418       .  A
C1428      C1432   1.508       .  S
C1429      C1434   1.410       .  A
C1429      C1438   1.402       .  A
C1430      H1446   1.110       .  S
C1430      H1447   1.110       .  S
C1430      H1448   1.111       .  S
C1432      H1443   1.110       .  S
C1432      H1444   1.111       .  S
C1432      H1445   1.105       .  S
C1434      C1435   1.404       .  A
C1434      C1439   1.505       .  S
C1435      H1440   1.084       .  S
C1435      C1436   1.403       .  A
C1436      C1437   1.411       .  A
C1437      C1438   1.401       .  A
C1437      C1441   1.506       .  S
C1438      H1442   1.084       .  S
C1439      H1449   1.111       .  S
C1439      H1450   1.110       .  S
C1439      H1451   1.110       .  S
C1441      H1452   1.109       .  S
C1441      H1453   1.108       .  S
C1441      H1454   1.111       .  S
C1455      H1465   1.084       .  S
C1455      C1456   1.401       .  A
C1455      C1460   1.405       .  A
C1456      C1461   1.475       .  S
C1456      C1457   1.410       .  A
C1457      C1458   1.398       .  A
C1457      C1462   1.509       .  S
C1458      H1463   1.084       .  S
C1458      C1459   1.403       .  A
C1459      C1460   1.417       .  A
C1460      C1464   1.505       .  S
C1461      C1466   1.407       .  A
C1461      C1470   1.399       .  A
C1462      H1478   1.110       .  S
C1462      H1479   1.109       .  S
C1462      H1480   1.111       .  S
C1464      H1475   1.110       .  S
C1464      H1476   1.111       .  S
C1464      H1477   1.104       .  S
C1466      C1467   1.402       .  A
C1466      C1471   1.506       .  S
C1467      H1472   1.084       .  S
C1467      C1468   1.406       .  A
C1468      C1469   1.417       .  A
C1469      C1470   1.401       .  A
C1469      C1473   1.507       .  S
C1470      H1474   1.085       .  S
C1471      H1481   1.111       .  S
C1471      H1482   1.110       .  S
C1471      H1483   1.109       .  S
C1473      H1484   1.110       .  S
C1473      H1485   1.102       .  S
C1473      H1486   1.111       .  S
C1487      H1497   1.085       .  S
C1487      C1488   1.398       .  A
C1487      C1492   1.401       .  A
C1488      C1493   1.476       .  S
C1488      C1489   1.409       .  A
C1489      C1490   1.402       .  A
C1489      C1494   1.507       .  S
C1490      H1495   1.084       .  S
C1490      C1491   1.407       .  A
C1491      C1492   1.420       .  A
C1492      C1496   1.509       .  S
C1493      C1498   1.410       .  A
C1493      C1502   1.399       .  A
C1494      H1510   1.110       .  S
C1494      H1511   1.110       .  S
C1494      H1512   1.111       .  S
C1496      H1507   1.111       .  S
C1496      H1508   1.109       .  S
C1496      H1509   1.110       .  S
C1498      C1499   1.405       .  A
C1498      C1503   1.505       .  S
C1499      H1504   1.084       .  S
C1499      C1500   1.405       .  A
C1500      C1501   1.415       .  A
C1501      C1502   1.398       .  A
C1501      C1505   1.508       .  S
C1502      H1506   1.085       .  S
C1503      H1513   1.111       .  S
C1503      H1514   1.110       .  S
C1503      H1515   1.110       .  S
C1505      H1516   1.110       .  S
C1505      H1517   1.106       .  S
C1505      H1518   1.110       .  S
C1519      H1529   1.085       .  S
C1519      C1520   1.399       .  A
C1519      C1524   1.401       .  A
C1520      C1525   1.476       .  S
C1520      C1521   1.408       .  A
C1521      C1522   1.403       .  A
C1521      C1526   1.506       .  S
C1522      H1527   1.084       .  S
C1522      C1523   1.406       .  A
C1523      C1524   1.416       .  A
C1524      C1528   1.506       .  S
C1525      C1530   1.411       .  A
C1525      C1534   1.399       .  A
C1526      H1542   1.110       .  S
C1526      H1543   1.110       .  S
C1526      H1544   1.111       .  S
C1528      H1539   1.110       .  S
C1528      H1540   1.111       .  S
C1528      H1541   1.105       .  S
C1530      C1531   1.405       .  A
C1530      C1535   1.505       .  S
C1531      H1536   1.084       .  S
C1531      C1532   1.402       .  A
C1532      C1533   1.413       .  A
C1533      C1534   1.398       .  A
C1533      C1537   1.509       .  S
C1534      H1538   1.085       .  S
C1535      H1545   1.111       .  S
C1535      H1546   1.110       .  S
C1535      H1547   1.110       .  S
C1537      H1548   1.110       .  S
C1537      H1549   1.108       .  S
C1537      H1550   1.110       .  S
C1551      H1561   1.085       .  S
C1551      C1552   1.398       .  A
C1551      C1556   1.401       .  A
C1552      C1557   1.478       .  S
C1552      C1553   1.411       .  A
C1553      C1554   1.404       .  A
C1553      C1558   1.507       .  S
C1554      H1559   1.084       .  S
C1554      C1555   1.404       .  A
C1555      C1556   1.418       .  A
C1556      C1560   1.507       .  S
C1557      C1562   1.411       .  A
C1557      C1566   1.401       .  A
C1558      H1574   1.110       .  S
C1558      H1575   1.110       .  S
C1558      H1576   1.111       .  S
C1560      H1571   1.110       .  S
C1560      H1572   1.111       .  S
C1560      H1573   1.108       .  S
C1562      C1563   1.400       .  A
C1562      C1567   1.507       .  S
C1563      H1568   1.085       .  S
C1563      C1564   1.401       .  A
C1564      C1565   1.416       .  A
C1565      C1566   1.404       .  A
C1565      C1569   1.507       .  S
C1566      H1570   1.084       .  S
C1567      H1577   1.111       .  S
C1567      H1578   1.110       .  S
C1567      H1579   1.109       .  S
C1569      H1580   1.110       .  S
C1569      H1581   1.106       .  S
C1569      H1582   1.110       .  S
C1583      H1593   1.085       .  S
C1583      C1584   1.401       .  A
C1583      C1588   1.405       .  A
C1584      C1589   1.481       .  S
C1584      C1585   1.407       .  A
C1585      C1586   1.401       .  A
C1585      C1590   1.507       .  S
C1586      H1591   1.083       .  S
C1586      C1587   1.408       .  A
C1587      C1588   1.420       .  A
C1588      C1592   1.507       .  S
C1589      C1594   1.410       .  A
C1589      C1598   1.402       .  A
C1590      H1606   1.110       .  S
C1590      H1607   1.110       .  S
C1590      H1608   1.111       .  S
C1592      H1603   1.111       .  S
C1592      H1604   1.110       .  S
C1592      H1605   1.101       .  S
C1594      C1595   1.399       .  A
C1594      C1599   1.508       .  S
C1595      H1600   1.084       .  S
C1595      C1596   1.404       .  A
C1596      C1597   1.417       .  A
C1597      C1598   1.407       .  A
C1597      C1601   1.507       .  S
C1598      H1602   1.084       .  S
C1599      H1609   1.111       .  S
C1599      H1610   1.110       .  S
C1599      H1611   1.110       .  S
C1601      H1612   1.111       .  S
C1601      H1613   1.106       .  S
C1601      H1614   1.110       .  S
C1615      H1625   1.084       .  S
C1615      C1616   1.401       .  A
C1615      C1620   1.402       .  A
C1616      C1621   1.473       .  S
C1616      C1617   1.409       .  A
C1617      C1618   1.398       .  A
C1617      C1622   1.507       .  S
C1618      H1623   1.085       .  S
C1618      C1619   1.403       .  A
C1619      C1620   1.414       .  A
C1620      C1624   1.506       .  S
C1621      C1626   1.407       .  A
C1621      C1630   1.400       .  A
C1622      H1638   1.110       .  S
C1622      H1639   1.110       .  S
C1622      H1640   1.111       .  S
C1624      H1635   1.110       .  S
C1624      H1636   1.111       .  S
C1624      H1637   1.106       .  S
C1626      C1627   1.401       .  A
C1626      C1631   1.506       .  S
C1627      H1632   1.084       .  S
C1627      C1628   1.405       .  A
C1628      C1629   1.417       .  A
C1629      C1630   1.401       .  A
C1629      C1633   1.509       .  S
C1630      H1634   1.085       .  S
C1631      H1641   1.111       .  S
C1631      H1642   1.110       .  S
C1631      H1643   1.110       .  S
C1633      H1644   1.110       .  S
C1633      H1645   1.105       .  S
C1633      H1646   1.111       .  S
C1647      H1657   1.085       .  S
C1647      C1648   1.400       .  A
C1647      C1652   1.400       .  A
C1648      C1653   1.473       .  S
C1648      C1649   1.408       .  A
C1649      C1650   1.402       .  A
C1649      C1654   1.506       .  S
C1650      H1655   1.084       .  S
C1650      C1651   1.404       .  A
C1651      C1652   1.414       .  A
C1652      C1656   1.506       .  S
C1653      C1658   1.410       .  A
C1653      C1662   1.398       .  A
C1654      H1670   1.110       .  S
C1654      H1671   1.110       .  S
C1654      H1672   1.111       .  S
C1656      H1667   1.110       .  S
C1656      H1668   1.111       .  S
C1656      H1669   1.106       .  S
C1658      C1659   1.405       .  A
C1658      C1663   1.505       .  S
C1659      H1664   1.084       .  S
C1659      C1660   1.402       .  A
C1660      C1661   1.413       .  A
C1661      C1662   1.396       .  A
C1661      C1665   1.509       .  S
C1662      H1666   1.085       .  S
C1663      H1673   1.111       .  S
C1663      H1674   1.110       .  S
C1663      H1675   1.110       .  S
C1665      H1676   1.110       .  S
C1665      H1677   1.108       .  S
C1665      H1678   1.110       .  S
C1679      H1689   1.084       .  S
C1679      C1684   1.407       .  A
C1680      C1685   1.484       .  S
C1680      C1681   1.407       .  A
C1681      C1682   1.403       .  A
C1681      C1686   1.507       .  S
C1682      H1687   1.083       .  S
C1683      C1684   1.427       .  A
C1684      C1688   1.509       .  S
C1685      C1694   1.401       .  A
C1686      H1702   1.110       .  S
C1686      H1703   1.110       .  S
C1686      H1704   1.111       .  S
C1688      H1699   1.110       .  S
C1688      H1700   1.111       .  S
C1688      H1701   1.110       .  S
C1690      C1691   1.406       .  A
C1690      C1695   1.506       .  S
C1691      H1696   1.084       .  S
C1692      C1693   1.417       .  A
C1693      C1694   1.403       .  A
C1693      C1697   1.508       .  S
C1694      H1698   1.085       .  S
C1695      H1705   1.111       .  S
C1695      H1706   1.110       .  S
C1695      H1707   1.110       .  S
C1697      H1708   1.111       .  S
C1697      H1709   1.106       .  S
C1697      H1710   1.110       .  S
C1711      H1721   1.085       .  S
C1711      C1716   1.403       .  A
C1712      C1717   1.479       .  S
C1712      C1713   1.409       .  A
C1713      C1714   1.403       .  A
C1713      C1718   1.506       .  S
C1714      H1719   1.084       .  S
C1715      C1716   1.417       .  A
C1716      C1720   1.508       .  S
C1717      C1722   1.409       .  A
C1718      H1734   1.110       .  S
C1718      H1735   1.110       .  S
C1718      H1736   1.111       .  S
C1720      H1731   1.111       .  S
C1720      H1732   1.110       .  S
C1720      H1733   1.106       .  S
C1722      C1723   1.402       .  A
C1722      C1727   1.506       .  S
C1723      H1728   1.084       .  S
C1723      C1724   1.406   1_556  A
C1725      C1726   1.403       .  A
C1725      C1729   1.506       .  S
C1726      H1730   1.085       .  S
C1727      H1737   1.111       .  S
C1727      H1738   1.110       .  S
C1727      H1739   1.110       .  S
C1729      H1740   1.110       .  S
C1729      H1741   1.104       .  S
C1729      H1742   1.111       .  S
C1743      H1753   1.085       .  S
C1743      C1744   1.396       .  A
C1743      C1748   1.400       .  A
C1744      C1749   1.473       .  S
C1744      C1745   1.408       .  A
C1745      C1746   1.403       .  A
C1745      C1750   1.506       .  S
C1746      H1751   1.084       .  S
C1746      C1747   1.406       .  A
C1747      C1748   1.423       .  A
C1748      C1752   1.510       .  S
C1749      C1754   1.407       .  A
C1749      C1758   1.397       .  A
C1750      H1766   1.110       .  S
C1750      H1767   1.110       .  S
C1750      H1768   1.111       .  S
C1752      H1763   1.109       .  S
C1752      H1764   1.111       .  S
C1754      C1755   1.401       .  A
C1754      C1759   1.507       .  S
C1755      H1760   1.082       .  S
C1755      C1756   1.407       .  A
C1756      C1757   1.423       .  A
C1757      C1758   1.402       .  A
C1757      C1761   1.509       .  S
C1758      H1762   1.085       .  S
C1759      H1769   1.111       .  S
C1759      H1770   1.110       .  S
C1759      H1771   1.109       .  S
C1761      H1772   1.110       .  S
C1761      H1773   1.109       .  S
C1761      H1774   1.111       .  S
C1775      H1785   1.085       .  S
C1775      C1776   1.400       .  A
C1775      C1780   1.405       .  A
C1776      C1781   1.479       .  S
C1776      C1777   1.411       .  A
C1777      C1778   1.401       .  A
C1777      C1782   1.508       .  S
C1778      H1783   1.085       .  S
C1778      C1779   1.402       .  A
C1779      C1780   1.418       .  A
C1780      C1784   1.507       .  S
C1781      C1786   1.411       .  A
C1781      C1790   1.399       .  A
C1782      H1798   1.110       .  S
C1782      H1799   1.109       .  S
C1782      H1800   1.111       .  S
C1784      H1795   1.111       .  S
C1784      H1796   1.110       .  S
C1784      H1797   1.106       .  S
C1786      C1787   1.404       .  A
C1786      C1791   1.506       .  S
C1787      H1792   1.084       .  S
C1787      C1788   1.404       .  A
C1788      C1789   1.417       .  A
C1789      C1790   1.401       .  A
C1789      C1793   1.508       .  S
C1790      H1794   1.085       .  S
C1791      H1801   1.111       .  S
C1791      H1802   1.110       .  S
C1791      H1803   1.109       .  S
C1793      H1804   1.111       .  S
C1793      H1805   1.108       .  S
C1793      H1806   1.110       .  S
C1807      H1817   1.084       .  S
C1807      C1808   1.403       .  A
C1807      C1812   1.401       .  A
C1808      C1813   1.478       .  S
C1808      C1809   1.410   1_655  A
C1809      C1810   1.403       .  A
C1809      C1814   1.506       .  S
C1810      H1815   1.084       .  S
C1810      C1811   1.404       .  A
C1811      C1812   1.410   1_455  A
C1812      C1816   1.507       .  S
C1813      C1818   1.411       .  A
C1813      C1822   1.400   1_655  A
C1814      H1830   1.109       .  S
C1814      H1831   1.110   1_455  S
C1814      H1832   1.111       .  S
C1816      H1827   1.109       .  S
C1816      H1828   1.111       .  S
C1816      H1829   1.111   1_655  S
C1818      C1819   1.402       .  A
C1818      C1823   1.507       .  S
C1819      H1824   1.084       .  S
C1819      C1820   1.405       .  A
C1820      C1821   1.417       .  A
C1821      C1822   1.402   1_655  A
C1821      C1825   1.509   1_655  S
C1822      H1826   1.084       .  S
C1823      H1833   1.111       .  S
C1823      H1834   1.109       .  S
C1823      H1835   1.110       .  S
C1825      H1836   1.108       .  S
C1825      H1838   1.111       .  S
C1839      H1849   1.085       .  S
C1839      C1840   1.400       .  A
C1839      C1844   1.403       .  A
C1840      C1845   1.474       .  S
C1840      C1841   1.407       .  A
C1841      C1842   1.397       .  A
C1841      C1846   1.508       .  S
C1842      H1847   1.084       .  S
C1842      C1843   1.407       .  A
C1843      C1844   1.419       .  A
C1844      C1848   1.508       .  S
C1845      C1850   1.406   1_655  A
C1845      C1854   1.399       .  A
C1846      H1862   1.110       .  S
C1846      H1863   1.110   1_655  S
C1846      H1864   1.111   1_655  S
C1848      H1859   1.111       .  S
C1848      H1860   1.110       .  S
C1848      H1861   1.106       .  S
C1850      C1851   1.400       .  A
C1850      C1855   1.507       .  S
C1851      H1856   1.082       .  S
C1851      C1852   1.409       .  A
C1852      C1853   1.420   1_455  A
C1853      C1854   1.403       .  A
C1853      C1857   1.508       .  S
C1854      H1858   1.084       .  S
C1855      H1865   1.111       .  S
C1855      H1866   1.110       .  S
C1855      H1867   1.110       .  S
C1857      H1868   1.110       .  S
C1857      H1869   1.110       .  S
C1857      H1870   1.111       .  S
C1871      H1881   1.084       .  S
C1871      C1872   1.401       .  A
C1871      C1876   1.405       .  A
C1872      C1877   1.478       .  S
C1872      C1873   1.408       .  A
C1873      C1874   1.401       .  A
C1873      C1878   1.507       .  S
C1874      H1879   1.084       .  S
C1874      C1875   1.407       .  A
C1875      C1876   1.417       .  A
C1876      C1880   1.507       .  S
C1877      C1882   1.411       .  A
C1877      C1886   1.399       .  A
C1878      H1894   1.110       .  S
C1878      H1895   1.110       .  S
C1878      H1896   1.111       .  S
C1880      H1891   1.110       .  S
C1880      H1892   1.111       .  S
C1880      H1893   1.110       .  S
C1882      C1883   1.402       .  A
C1882      C1887   1.507       .  S
C1883      H1888   1.084       .  S
C1883      C1884   1.402       .  A
C1884      C1885   1.417       .  A
C1885      C1886   1.405       .  A
C1885      C1889   1.507       .  S
C1886      H1890   1.084       .  S
C1887      H1897   1.111       .  S
C1887      H1898   1.110       .  S
C1887      H1899   1.110       .  S
C1889      H1900   1.111       .  S
C1889      H1901   1.110       .  S
C1889      H1902   1.108       .  S
C1903      H1913   1.085       .  S
C1903      C1904   1.401       .  A
C1903      C1908   1.401       .  A
C1904      C1909   1.474       .  S
C1904      C1905   1.408       .  A
C1905      C1906   1.400       .  A
C1905      C1910   1.506       .  S
C1906      H1911   1.084       .  S
C1906      C1907   1.403       .  A
C1907      C1908   1.414       .  A
C1908      C1912   1.509       .  S
C1909      C1914   1.406       .  A
C1909      C1918   1.399       .  A
C1910      H1926   1.110       .  S
C1910      H1927   1.110       .  S
C1910      H1928   1.111       .  S
C1912      H1923   1.111       .  S
C1912      H1924   1.110       .  S
C1912      H1925   1.107       .  S
C1914      C1915   1.398       .  A
C1914      C1919   1.508       .  S
C1915      H1920   1.083       .  S
C1915      C1916   1.411       .  A
C1916      C1917   1.423       .  A
C1917      C1918   1.405       .  A
C1917      C1921   1.507       .  S
C1918      H1922   1.084       .  S
C1919      H1929   1.111       .  S
C1919      H1930   1.110       .  S
C1919      H1931   1.110       .  S
C1921      H1932   1.110       .  S
C1921      H1933   1.110       .  S
C1921      H1934   1.111       .  S
C1935      H1945   1.084       .  S
C1935      C1936   1.399       .  A
C1935      C1940   1.401       .  A
C1936      C1941   1.477       .  S
C1936      C1937   1.409       .  A
C1937      C1938   1.402       .  A
C1937      C1942   1.507       .  S
C1938      H1943   1.084       .  S
C1938      C1939   1.407       .  A
C1939      C1940   1.420       .  A
C1940      C1944   1.509       .  S
C1941      C1946   1.409       .  A
C1941      C1950   1.401       .  A
C1942      H1958   1.109       .  S
C1942      H1959   1.110       .  S
C1942      H1960   1.111       .  S
C1944      H1955   1.111       .  S
C1944      H1956   1.108       .  S
C1944      H1957   1.110       .  S
C1946      C1947   1.402       .  A
C1946      C1951   1.506       .  S
C1947      H1952   1.084       .  S
C1947      C1948   1.405       .  A
C1948      C1949   1.415       .  A
C1949      C1950   1.400       .  A
C1949      C1953   1.509       .  S
C1950      H1954   1.085       .  S
C1951      H1961   1.111       .  S
C1951      H1962   1.109       .  S
C1951      H1963   1.110       .  S
C1953      H1964   1.111       .  S
C1953      H1965   1.105       .  S
C1953      H1966   1.110       .  S
C1967      H1977   1.085       .  S
C1967      C1968   1.398       .  A
C1967      C1972   1.397       .  A
C1968      C1973   1.472       .  S
C1968      C1969   1.410       .  A
C1969      C1970   1.403       .  A
C1969      C1974   1.505       .  S
C1970      H1975   1.084       .  S
C1970      C1971   1.401       .  A
C1971      C1972   1.414       .  A
C1972      C1976   1.509       .  S
C1973      C1978   1.408       .  A
C1973      C1982   1.401       .  A
C1974      H1990   1.110       .  S
C1974      H1991   1.110       .  S
C1974      H1992   1.111       .  S
C1976      H1987   1.110       .  S
C1976      H1988   1.110       .  S
C1976      H1989   1.108       .  S
C1978      C1979   1.399       .  A
C1978      C1983   1.507       .  S
C1979      H1984   1.084       .  S
C1979      C1980   1.404       .  A
C1980      C1981   1.416       .  A
C1981      C1982   1.402       .  A
C1981      C1985   1.508       .  S
C1982      H1986   1.085       .  S
C1983      H1993   1.111       .  S
C1983      H1994   1.110       .  S
C1983      H1995   1.110       .  S
C1985      H1996   1.111       .  S
C1985      H1997   1.106       .  S
C1985      H1998   1.110       .  S
C1999      H2009   1.085       .  S
C1999      C2004   1.398       .  A
C2000      C2005   1.471       .  S
C2000      C2001   1.408       .  A
C2001      C2002   1.402       .  A
C2001      C2006   1.506       .  S
C2002      H2007   1.084       .  S
C2003      C2004   1.417       .  A
C2004      C2008   1.509       .  S
C2005      C2010   1.409       .  A
C2006      H2022   1.110       .  S
C2006      H2023   1.109       .  S
C2006      H2024   1.111       .  S
C2008      H2019   1.111       .  S
C2008      H2020   1.111       .  S
C2008      H2021   1.109       .  S
C2010      C2011   1.398       .  A
C2010      C2015   1.509       .  S
C2011      H2016   1.084       .  S
C2012      C2013   1.418       .  A
C2013      C2014   1.403       .  A
C2013      C2017   1.507       .  S
C2014      H2018   1.085       .  S
C2015      H2025   1.111       .  S
C2015      H2026   1.110       .  S
C2015      H2027   1.109       .  S
C2017      H2028   1.110       .  S
C2017      H2029   1.107       .  S
C2017      H2030   1.111       .  S
C2031      H2041   1.085       .  S
C2031      C2036   1.402       .  A
C2032      C2037   1.474       .  S
C2032      C2033   1.408       .  A
C2033      C2034   1.400       .  A
C2033      C2038   1.507       .  S
C2034      H2039   1.084       .  S
C2034      C2035   1.404       .  A
C2036      C2040   1.508       .  S
C2037      C2042   1.408       .  A
C2038      H2054   1.110       .  S
C2038      H2055   1.110       .  S
C2038      H2056   1.111       .  S
C2040      H2051   1.111       .  S
C2040      H2052   1.110       .  S
C2040      H2053   1.106       .  S
C2042      C2043   1.400       .  A
C2042      C2047   1.507       .  S
C2043      H2048   1.084       .  S
C2044      C2045   1.417   1_554  A
C2045      C2046   1.402       .  A
C2045      C2049   1.507       .  S
C2046      H2050   1.085       .  S
C2047      H2057   1.111       .  S
C2047      H2058   1.110       .  S
C2047      H2059   1.110       .  S
C2049      H2060   1.110       .  S
C2049      H2061   1.105       .  S
C2049      H2062   1.111       .  S
C2063      H2073   1.085       .  S
C2063      C2064   1.399       .  A
C2063      C2068   1.397       .  A
C2064      C2069   1.473       .  S
C2064      C2065   1.410       .  A
C2065      C2066   1.402       .  A
C2065      C2070   1.506       .  S
C2066      H2071   1.084       .  S
C2066      C2067   1.403       .  A
C2067      C2068   1.415       .  A
C2068      C2072   1.509       .  S
C2069      C2074   1.408       .  A
C2069      C2078   1.400       .  A
C2070      H2086   1.110       .  S
C2070      H2087   1.110       .  S
C2070      H2088   1.111       .  S
C2072      H2083   1.111       .  S
C2072      H2084   1.110       .  S
C2072      H2085   1.107       .  S
C2074      C2075   1.400       .  A
C2074      C2079   1.507       .  S
C2075      H2080   1.084       .  S
C2075      C2076   1.405       .  A
C2076      C2077   1.418       .  A
C2077      C2078   1.400       .  A
C2077      C2081   1.510       .  S
C2078      H2082   1.085       .  S
C2079      H2089   1.111       .  S
C2079      H2090   1.110       .  S
C2079      H2091   1.110       .  S
C2081      H2092   1.111       .  S
C2081      H2093   1.106       .  S
C2081      H2094   1.110       .  S
C2095      H2105   1.085       .  S
C2095      C2096   1.399       .  A
C2095      C2100   1.401       .  A
C2096      C2101   1.472       .  S
C2096      C2097   1.408       .  A
C2097      C2098   1.399       .  A
C2097      C2102   1.507       .  S
C2098      H2103   1.084       .  S
C2098      C2099   1.404       .  A
C2099      C2100   1.418       .  A
C2100      C2104   1.509       .  S
C2101      C2106   1.410       .  A
C2101      C2110   1.398       .  A
C2102      H2118   1.110       .  S
C2102      H2119   1.110       .  S
C2102      H2120   1.111       .  S
C2104      H2115   1.111       .  S
C2104      H2116   1.110       .  S
C2104      H2117   1.104       .  S
C2106      C2107   1.399       .  A
C2106      C2111   1.507       .  S
C2107      H2112   1.084       .  S
C2107      C2108   1.402       .  A
C2108      C2109   1.420       .  A
C2109      C2110   1.401       .  A
C2109      C2113   1.509       .  S
C2110      H2114   1.085       .  S
C2111      H2121   1.111       .  S
C2111      H2122   1.110       .  S
C2111      H2123   1.110       .  S
C2113      H2124   1.111       .  S
C2113      H2125   1.105       .  S
C2113      H2126   1.110       .  S
C2127      H2137   1.084       .  S
C2127      C2128   1.402       .  A
C2127      C2132   1.405       .  A
C2128      C2133   1.478       .  S
C2128      C2129   1.408       .  A
C2129      C2130   1.399       .  A
C2129      C2134   1.507       .  S
C2130      H2135   1.084       .  S
C2130      C2131   1.404       .  A
C2131      C2132   1.417       .  A
C2132      C2136   1.508       .  S
C2133      C2138   1.409       .  A
C2133      C2142   1.398       .  A
C2134      H2150   1.110       .  S
C2134      H2151   1.110       .  S
C2134      H2152   1.111       .  S
C2136      H2147   1.111       .  S
C2136      H2148   1.110       .  S
C2136      H2149   1.106       .  S
C2138      C2139   1.402       .  A
C2138      C2143   1.507       .  S
C2139      H2144   1.084       .  S
C2139      C2140   1.405       .  A
C2140      C2141   1.421       .  A
C2141      C2142   1.405       .  A
C2141      C2145   1.506       .  S
C2142      H2146   1.084       .  S
C2143      H2153   1.111       .  S
C2143      H2154   1.110       .  S
C2143      H2155   1.110       .  S
C2145      H2156   1.111       .  S
C2145      H2157   1.110       .  S
C2145      H2158   1.107       .  S
C2159      H2169   1.084       .  S
C2159      C2160   1.397       .  A
C2159      C2164   1.403       .  A
C2160      C2165   1.474       .  S
C2160      C2161   1.408       .  A
C2161      C2162   1.399       .  A
C2161      C2166   1.508       .  S
C2162      H2167   1.082       .  S
C2162      C2163   1.407       .  A
C2163      C2164   1.423       .  A
C2164      C2168   1.508       .  S
C2165      C2170   1.406       .  A
C2165      C2174   1.400       .  A
C2166      H2182   1.110       .  S
C2166      H2183   1.110       .  S
C2166      H2184   1.111       .  S
C2168      H2179   1.110       .  S
C2168      H2180   1.111       .  S
C2168      H2181   1.110       .  S
C2170      C2171   1.397       .  A
C2170      C2175   1.508       .  S
C2171      H2176   1.084       .  S
C2171      C2172   1.407       .  A
C2172      C2173   1.421       .  A
C2173      C2174   1.406       .  A
C2173      C2177   1.508       .  S
C2174      H2178   1.084       .  S
C2175      H2185   1.111       .  S
C2175      H2186   1.110       .  S
C2175      H2187   1.110       .  S
C2177      H2188   1.111       .  S
C2177      H2189   1.110       .  S
C2177      H2190   1.110       .  S
C2191      H2201   1.084       .  S
C2191      C2196   1.404       .  A
C2192      C2197   1.475       .  S
C2192      C2193   1.409       .  A
C2193      C2194   1.399       .  A
C2193      C2198   1.508       .  S
C2194      H2199   1.084       .  S
C2194      C2195   1.405       .  A
C2196      C2200   1.507       .  S
C2197      C2202   1.409       .  A
C2198      H2214   1.110       .  S
C2198      H2215   1.109       .  S
C2198      H2216   1.111       .  S
C2200      H2211   1.111       .  S
C2200      H2212   1.110       .  S
C2200      H2213   1.107       .  S
C2202      C2203   1.404       .  A
C2202      C2207   1.506       .  S
C2203      H2208   1.084       .  S
C2203      C2204   1.405       .  A
C2205      C2206   1.399       .  A
C2205      C2209   1.510       .  S
C2206      H2210   1.085       .  S
C2207      H2217   1.111       .  S
C2207      H2218   1.110       .  S
C2207      H2219   1.110       .  S
C2209      H2220   1.110       .  S
C2209      H2221   1.104       .  S
C2209      H2222   1.111       .  S
C2223      H2233   1.084       .  S
C2223      C2224   1.398       .  A
C2223      C2228   1.402       .  A
C2224      C2229   1.475       .  S
C2224      C2225   1.408       .  A
C2225      C2226   1.403       .  A
C2225      C2230   1.506       .  S
C2226      H2231   1.084       .  S
C2226      C2227   1.407       .  A
C2227      C2228   1.419       .  A
C2228      C2232   1.509       .  S
C2229      C2234   1.410       .  A
C2229      C2238   1.399       .  A
C2230      H2246   1.110       .  S
C2230      H2247   1.110       .  S
C2230      H2248   1.111       .  S
C2232      H2243   1.109       .  S
C2232      H2244   1.111   1_565  S
C2234      C2235   1.400       .  A
C2234      C2239   1.507       .  S
C2235      H2240   1.084       .  S
C2235      C2236   1.403       .  A
C2236      C2237   1.417       .  A
C2237      C2238   1.404       .  A
C2237      C2241   1.507   1_565  S
C2238      H2242   1.084       .  S
C2239      H2249   1.111       .  S
C2239      H2250   1.110       .  S
C2239      H2251   1.110       .  S
C2241      H2252   1.109       .  S
C2241      H2253   1.111   1_545  S
C2241      H2254   1.111       .  S
C2255      H2265   1.085       .  S
C2255      C2256   1.401       .  A
C2255      C2260   1.404       .  A
C2256      C2261   1.477       .  S
C2256      C2257   1.408       .  A
C2257      C2258   1.399       .  A
C2257      C2262   1.507   1_565  S
C2258      H2263   1.085       .  S
C2258      C2259   1.404       .  A
C2259      C2260   1.419       .  A
C2260      C2264   1.508       .  S
C2261      C2266   1.412       .  A
C2261      C2270   1.398       .  A
C2262      H2278   1.110       .  S
C2262      H2279   1.110       .  S
C2262      H2280   1.111       .  S
C2264      H2275   1.111       .  S
C2264      H2276   1.110       .  S
C2264      H2277   1.104       .  S
C2266      C2267   1.403       .  A
C2266      C2271   1.506       .  S
C2267      H2272   1.085       .  S
C2267      C2268   1.401       .  A
C2268      C2269   1.418       .  A
C2269      C2270   1.401       .  A
C2269      C2273   1.509       .  S
C2270      H2274   1.085       .  S
C2271      H2281   1.111       .  S
C2271      H2282   1.110       .  S
C2271      H2283   1.110       .  S
C2273      H2284   1.111       .  S
C2273      H2285   1.106       .  S
C2273      H2286   1.110   1_565  S
C2287      H2297   1.085       .  S
C2287      C2292   1.403       .  A
C2288      C2293   1.476       .  S
C2288      C2289   1.408       .  A
C2289      C2290   1.400       .  A
C2289      C2294   1.507       .  S
C2290      H2295   1.084       .  S
C2291      C2292   1.419       .  A
C2292      C2296   1.508       .  S
C2293      C2298   1.410       .  A
C2294      H2310   1.110       .  S
C2294      H2311   1.110       .  S
C2294      H2312   1.111       .  S
C2296      H2307   1.111       .  S
C2296      H2308   1.110       .  S
C2296      H2309   1.106       .  S
C2298      C2299   1.404       .  A
C2298      C2303   1.506       .  S
C2299      H2304   1.084       .  S
C2299      C2300   1.403       .  A
C2301      C2302   1.399       .  A
C2301      C2305   1.509       .  S
C2302      H2306   1.085       .  S
C2303      H2313   1.111       .  S
C2303      H2314   1.110       .  S
C2303      H2315   1.110       .  S
C2305      H2316   1.110       .  S
C2305      H2317   1.106       .  S
C2305      H2318   1.111       .  S
C2319      H2329   1.084       .  S
C2319      C2320   1.398       .  A
C2319      C2324   1.401       .  A
C2320      C2325   1.476       .  S
C2320      C2321   1.409       .  A
C2321      C2322   1.403       .  A
C2321      C2326   1.506       .  S
C2322      H2327   1.084       .  S
C2322      C2323   1.405       .  A
C2323      C2324   1.419       .  A
C2324      C2328   1.509       .  S
C2325      C2330   1.411       .  A
C2325      C2334   1.399       .  A
C2326      H2342   1.110       .  S
C2326      H2343   1.110       .  S
C2326      H2344   1.111       .  S
C2328      H2339   1.108       .  S
C2328      H2340   1.111       .  S
C2328      H2341   1.110       .  S
C2330      C2331   1.400       .  A
C2330      C2335   1.508       .  S
C2331      H2336   1.085       .  S
C2331      C2332   1.402       .  A
C2332      C2333   1.418       .  A
C2333      C2334   1.403       .  A
C2333      C2337   1.508       .  S
C2334      H2338   1.084       .  S
C2335      H2345   1.111       .  S
C2335      H2346   1.110       .  S
C2335      H2347   1.110       .  S
C2337      H2348   1.110       .  S
C2337      H2349   1.105       .  S
C2337      H2350   1.111       .  S
C2351      H2361   1.085       .  S
C2351      C2352   1.399       .  A
C2351      C2356   1.402       .  A
C2352      C2357   1.476       .  S
C2352      C2353   1.407       .  A
C2353      C2354   1.402       .  A
C2353      C2358   1.507       .  S
C2354      H2359   1.083       .  S
C2354      C2355   1.407       .  A
C2355      C2356   1.420       .  A
C2356      C2360   1.510       .  S
C2357      C2362   1.408       .  A
C2357      C2366   1.402       .  A
C2358      H2374   1.110       .  S
C2358      H2375   1.110       .  S
C2358      H2376   1.111       .  S
C2360      H2371   1.111       .  S
C2360      H2372   1.110       .  S
C2360      H2373   1.104       .  S
C2362      C2363   1.397       .  A
C2362      C2367   1.508       .  S
C2363      H2368   1.084       .  S
C2363      C2364   1.404       .  A
C2364      C2365   1.417       .  A
C2365      C2366   1.405       .  A
C2365      C2369   1.508       .  S
C2366      H2370   1.084       .  S
C2367      H2377   1.111       .  S
C2367      H2378   1.110       .  S
C2367      H2379   1.110       .  S
C2369      H2380   1.111       .  S
C2369      H2381   1.106       .  S
C2369      H2382   1.110       .  S
