geometry optimzed in LAMMPS
_audit_creation_date              2020-12-01 
_audit_creation_method            'lammps2cif' 
_symmetry_space_group_name_H-M    'P1' 
_symmetry_Int_Tables_number       1 
_symmetry_cell_setting            triclinic 
loop_ 
_symmetry_equiv_pos_as_xyz 
  x,y,z 
_cell_length_a                    25.67803505 
_cell_length_b                    26.324074840103776 
_cell_length_c                    26.185067747481785 
_cell_angle_alpha                 89.99910553793559 
_cell_angle_beta                  90.00090095383533 
_cell_angle_gamma                 81.90396276377722 
loop_ 
_atom_site_label 
_atom_site_type_symbol 
_atom_site_fract_x 
_atom_site_fract_y 
_atom_site_fract_z 
_atom_site_charge 
C1          C  0.87018005  0.88839836  0.61233169    -0.01100
C2          C  0.49111622  0.52930535  0.61229430    -0.01100
C3          C  0.85040122  0.53930507  0.96144125    -0.01100
C4          C  0.51059497  0.87859229  0.96120819    -0.01100
C5          C  0.98827685  0.02984969  0.44475915    -0.01100
C6          C  0.01679441  0.37134856  0.10001296    -0.01100
C7          C  0.34421427  0.04652264  0.09979600    -0.01100
C8          C  0.37302951  0.38787559  0.44470231    -0.01100
Zr9        Zr  0.87514991  0.90828020  0.96470190     2.17500
O10         O  0.80587744  0.91433336  0.90019510    -0.50000
O11         O  0.88279988  0.81502175  0.96615016    -0.73200
O12         O  0.90798701  0.89782895  0.87809908    -0.79900
O13         O  0.76977568  0.93252973  0.06860775    -0.81700
O14         O  0.98748723  0.92626493  0.87204415    -0.77300
O15         O  0.78463185  0.90360310  0.98721629    -0.88900
O16         O  0.94153291  0.78461503  0.02763207    -0.74900
O17         O  0.96667517  0.88081282  0.97686001    -0.84400
O18         O  0.88372434  0.88409914  0.05206129    -0.84100
O19         O  0.91702157  0.98160308  0.94310721    -0.70800
O20         O  0.84096894  0.98358916  0.01225498    -0.83000
Zr21       Zr  0.98565121  0.00446987  0.09271411     2.26400
Zr22       Zr  0.00918552  0.95418028  0.95747111     2.06300
Zr23       Zr  0.85131980  0.95925078  0.09998287     2.10000
Zr24       Zr  0.97518136  0.85774005  0.06470743     1.78800
O25         O  0.78202443  0.02810858  0.12366375    -0.91800
O26         O  0.05303521  0.80299903  0.03337420    -0.39600
O27         O  0.94303528  0.93200159  0.11408251    -0.76200
O28         O  0.01999322  0.92920104  0.04519394    -0.94900
O29         O  0.97650784  0.02902325  0.00559181    -0.88200
O30         O  0.89412514  0.03197215  0.08058644    -0.91100
C31         C  0.90816860  0.77866312  0.99259798     1.02700
C32         C  0.75521258  0.91403819  0.02637021     1.15600
C33         C  0.94800043  0.90790469  0.85293213     1.06400
O34         O  0.08254069  0.88907101  0.93475794    -0.93200
O35         O  0.08949243  0.98516795  0.98790110    -0.89000
O36         O  0.07253822  0.01948841  0.06706355    -0.82100
C37         C  0.10255203  0.00779456  0.02858480     1.13000
O38         O  0.81512405  0.07162436  0.92952017    -0.95200
Zr39       Zr  0.88514993  0.05563097  0.99295937     1.88900
O40         O  0.97871046  0.09746825  0.09265207    -0.71800
O41         O  0.03301826  0.01679031  0.89637857    -0.51100
O42         O  0.91635030  0.09907254  0.91918322    -0.95800
O43         O  0.80884945  0.11353102  0.02332396    -0.53000
O44         O  0.92208228  0.12772719  0.02924721    -0.72400
C45         C  0.95473412  0.13368435  0.06506501     1.00000
O46         O  0.05293903  0.98538606  0.15884920    -0.61200
O47         O  0.82376547  0.90031957  0.16302880    -0.56000
O48         O  0.95269955  0.01755098  0.17876149    -0.92700
O49         O  0.87731210  0.98156718  0.18564055    -0.91100
O50         O  0.94409253  0.81178939  0.13675632    -0.91400
O51         O  0.04234763  0.83989119  0.13046829    -0.90200
C52         C  0.91498550  0.00300551  0.20434743     1.18800
H53         H  0.86354552  0.85679020  0.05993827     0.34800
H54         H  0.05683803  0.91947371  0.05291215     0.45600
H55         H  0.88184869  0.06043689  0.10279413     0.39200
H56         H  0.91050677  0.99106010  0.90782253     0.35600
H57         H  0.05124768  0.76908544  0.04911892     0.27400
H58         H  0.05819111  0.99675033  0.87282393     0.33400
H59         H  0.90618397  0.13611596  0.92611128     0.39300
H60         H  0.96237208  0.77623044  0.13338962     0.33700
H61         H  0.78775887  0.91566036  0.17295882     0.32600
H62         H  0.76986590  0.01797034  0.15756691     0.34300
H63         H  0.81358375  0.14759570  0.00950065     0.33300
H64         H  0.03597747  0.86962668  0.15390579     0.37300
H65         H  0.03844227  0.96278618  0.18375413     0.30000
H66         H  0.81253658  0.88232594  0.87989503     0.34200
H67         H  0.81276659  0.10835678  0.92030047     0.37100
H68         H  0.81884828  0.86905228  0.14366534     0.29700
H69         H  0.08198036  0.96225495  0.14257576     0.42600
H70         H  0.06597298  0.85940640  0.92294218     0.32600
H71         H  0.04596802  0.79791748  0.99669663     0.40200
H72         H  0.81406464  0.11669831  0.06056340     0.32100
H73         H  0.00096194  0.02664990  0.87561451     0.32100
H74         H  0.81274678  0.94205965  0.87662798     0.32400
Zr75       Zr  0.86596011  0.52407540  0.58396149     2.17500
O76         O  0.79939696  0.59946503  0.59308357    -0.50000
O77         O  0.86857216  0.52091879  0.67712126    -0.73200
O78         O  0.77674511  0.50366712  0.59299115    -0.79900
O79         O  0.96769163  0.61334622  0.55210258    -0.81700
O80         O  0.77311093  0.42288379  0.56382175    -0.77300
O81         O  0.88527398  0.61167478  0.58361004    -0.88900
O82         O  0.92933386  0.45439028  0.70212592    -0.74900
O83         O  0.88163481  0.43545421  0.60550731    -0.84400
O84         O  0.95687286  0.50719937  0.60587231    -0.84100
O85         O  0.84264649  0.48051639  0.50826399    -0.70800
O86         O  0.91331998  0.54423848  0.50922209    -0.83000
Zr87       Zr  0.99849804  0.39183926  0.47688549     2.26400
Zr88       Zr  0.86027696  0.39119503  0.52994015     2.06300
Zr89       Zr  0.00455916  0.52549677  0.53087715     2.10000
Zr90       Zr  0.97286398  0.41821596  0.62573263     1.78800
O91         O  0.03594207  0.58628935  0.47225828    -0.91800
O92         O  0.95030184  0.34428742  0.67243449    -0.39600
O93         O  0.02173660  0.43634865  0.55164591    -0.76200
O94         O  0.95159051  0.37163109  0.55197644    -0.94900
O95         O  0.90774598  0.40980404  0.45516282    -0.88200
O96         O  0.98327958  0.48073630  0.45600804    -0.91100
C97         C  0.89337228  0.49208613  0.71129109     1.02700
C98         C  0.92371451  0.63501463  0.57038538     1.15600
C99         C  0.75223262  0.46548839  0.58379925     1.06400
O100        O  0.83498832  0.32690307  0.58826973    -0.93200
O101        O  0.89308011  0.30538960  0.49890819    -0.89000
O102        O  0.97266332  0.30797650  0.46111519    -0.82100
C103        C  0.93440160  0.28468921  0.47507465     1.13000
O104        O  0.81904385  0.56699380  0.42190156    -0.95200
Zr105      Zr  0.89250746  0.49860227  0.43465433     1.88900
O106        O  0.99796822  0.39423120  0.38379425    -0.71800
O107        O  0.79821031  0.37373661  0.46409982    -0.51100
O108        O  0.82302664  0.46765476  0.38515739    -0.95800
O109        O  0.91754926  0.57184578  0.38835724    -0.53000
O110        O  0.93598771  0.45994921  0.35871380    -0.72400
C111        C  0.97245408  0.42252462  0.34958330     1.00000
O112        O  0.06869621  0.31989270  0.49029089    -0.61200
O113        O  0.06385910  0.54441212  0.59879344    -0.56000
O114        O  0.08643440  0.41262229  0.46217268    -0.92700
O115        O  0.09188237  0.48987061  0.49954047    -0.91100
O116        O  0.04285908  0.44971420  0.67389193    -0.91400
O117        O  0.04687325  0.35128825  0.64094516    -0.90200
C118        C  0.11181053  0.44902058  0.47567111     1.18800
H119        H  0.96496494  0.52806334  0.63434785     0.34800
H120        H  0.96035403  0.33563862  0.56001563     0.45600
H121        H  0.00517732  0.48845948  0.42785513     0.39200
H122        H  0.80594786  0.49021629  0.50000309     0.35600
H123        H  0.96277485  0.34874251  0.70772270     0.27400
H124        H  0.77601386  0.35069509  0.48076487     0.33400
H125        H  0.82897328  0.47810481  0.34954474     0.39300
H126        H  0.03874773  0.43747626  0.70922379     0.33700
H127        H  0.09292223  0.55811244  0.58098843     0.32600
H128        H  0.06443485  0.59992027  0.49106557     0.34300
H129        H  0.91380467  0.56347244  0.35179631     0.33300
H130        H  0.05683472  0.33747600  0.60661016     0.37300
H131        H  0.09485662  0.33316117  0.51259345     0.30000
H132        H  0.78048047  0.59456134  0.62528221     0.34200
H133        H  0.81405014  0.57010856  0.38447626     0.37100
H134        H  0.04483549  0.57437509  0.61701518     0.29700
H135        H  0.05354258  0.29548719  0.51275169     0.42600
H136        H  0.82935459  0.34478899  0.62148827     0.32600
H137        H  0.91147594  0.35038153  0.67512264     0.40200
H138        H  0.95593569  0.56991829  0.39368285     0.32100
H139        H  0.77457195  0.40652982  0.45956728     0.32100
H140        H  0.77344892  0.59702008  0.56552575     0.33600
Zr141      Zr  0.48571500  0.50966038  0.96454652     2.17500
O142        O  0.55500024  0.50358204  0.90005361    -0.50000
O143        O  0.47805630  0.60292291  0.96597898    -0.73200
O144        O  0.45289601  0.52008569  0.87793519    -0.79900
O145        O  0.59106994  0.48544007  0.06848721    -0.81700
O146        O  0.37343729  0.49156768  0.87185966    -0.77300
O147        O  0.57624069  0.51431911  0.98707492    -0.88900
O148        O  0.41935992  0.63332282  0.02749243    -0.74900
O149        O  0.39418114  0.53710919  0.97668242    -0.84400
O150        O  0.47711926  0.53385665  0.05189862    -0.84100
O151        O  0.44385977  0.43632089  0.94296540    -0.70800
O152        O  0.51989239  0.43436632  0.01212428    -0.83000
Zr153      Zr  0.37519791  0.41347484  0.09256442     2.26400
Zr154      Zr  0.35168818  0.46372823  0.95729938     2.06300
Zr155      Zr  0.50952272  0.45871903  0.09984162     2.10000
Zr156      Zr  0.38565829  0.56020142  0.06452365     1.78800
O157        O  0.57885386  0.38988683  0.12350359    -0.91800
O158        O  0.30787774  0.61500769  0.03312305    -0.39600
O159        O  0.41780123  0.48595442  0.11392546    -0.76200
O160        O  0.34085476  0.48873131  0.04501481    -0.94900
O161        O  0.38436883  0.38890362  0.00544867    -0.88200
O162        O  0.46672902  0.38598738  0.08045865    -0.91100
C163        C  0.45270893  0.63927895  0.99244517     1.02700
C164        C  0.60564909  0.50390282  0.02624234     1.15600
C165        C  0.41291264  0.50995250  0.85275594     1.06400
O166        O  0.27836237  0.52883069  0.93448539    -0.93200
O167        O  0.27136944  0.43274514  0.98771491    -0.89000
O168        O  0.28830836  0.39847456  0.06690158    -0.82100
C169        C  0.25830194  0.41014267  0.02841160     1.13000
O170        O  0.54572035  0.34635037  0.92936487    -0.95200
Zr171      Zr  0.47573176  0.36230990  0.99284163     1.88900
O172        O  0.38210761  0.32047561  0.09247812    -0.71800
O173        O  0.32785051  0.40109008  0.89624230    -0.51100
O174        O  0.44451084  0.31880666  0.91911801    -0.95800
O175        O  0.55208498  0.30446405  0.02317980    -0.53000
O176        O  0.43885392  0.29020179  0.02917490    -0.72400
C177        C  0.40614475  0.28425102  0.06494216     1.00000
O178        O  0.30793114  0.43253616  0.15872076    -0.61200
O179        O  0.53701148  0.51768576  0.16288875    -0.56000
O180        O  0.40817467  0.40037443  0.17861004    -0.92700
O181        O  0.48358646  0.43632030  0.18548301    -0.91100
O182        O  0.41670196  0.60612389  0.13661357    -0.91400
O183        O  0.31842352  0.57801729  0.13022186    -0.90200
C184        C  0.44591461  0.41488292  0.20418956     1.18800
H185        H  0.49729409  0.56116847  0.05977621     0.34800
H186        H  0.30400742  0.49845811  0.05272143     0.45600
H187        H  0.47900832  0.35752692  0.10267194     0.39200
H188        H  0.45038891  0.42684990  0.90768641     0.35600
H189        H  0.30971063  0.64892749  0.04883470     0.27400
H190        H  0.30274260  0.42113287  0.87262930     0.33400
H191        H  0.45471578  0.28177024  0.92605794     0.39300
H192        H  0.39839486  0.64167481  0.13327011     0.33700
H193        H  0.57300255  0.50234198  0.17286814     0.32600
H194        H  0.59087769  0.39992739  0.15749260     0.34300
H195        H  0.54733140  0.27037717  0.00942709     0.33300
H196        H  0.32479852  0.54829130  0.15367220     0.37300
H197        H  0.32243150  0.45513582  0.18362330     0.30000
H198        H  0.54835115  0.53558551  0.87974538     0.34200
H199        H  0.54809511  0.30961460  0.92015495     0.37100
H200        H  0.54196347  0.54893732  0.14351442     0.29700
H201        H  0.27888018  0.45566391  0.14245644     0.42600
H202        H  0.29494562  0.55848077  0.92265562     0.32600
H203        H  0.31496306  0.62004164  0.99644112     0.40200
H204        H  0.54692810  0.30135720  0.06043409     0.32100
H205        H  0.35993276  0.39115903  0.87553550     0.32100
H206        H  0.54813046  0.47585255  0.87649115     0.32400
Zr207      Zr  0.49541434  0.89362981  0.58364316     2.17500
O208        O  0.56202853  0.81826383  0.59263926    -0.50000
O209        O  0.49284342  0.89679051  0.67680705    -0.73200
O210        O  0.58460263  0.91407958  0.59271256    -0.79900
O211        O  0.39374605  0.80431470  0.55180687    -0.81700
O212        O  0.58822303  0.99485437  0.56351269    -0.77300
O213        O  0.47613721  0.80602370  0.58336933    -0.88900
O214        O  0.43204166  0.96328385  0.70181311    -0.74900
O215        O  0.47970728  0.98224512  0.60519214    -0.84400
O216        O  0.40450375  0.91046705  0.60556743    -0.84100
O217        O  0.51870207  0.93719840  0.50794159    -0.70800
O218        O  0.44805024  0.87345024  0.50890958    -0.83000
Zr219      Zr  0.36282928  0.02583877  0.47659904     2.26400
Zr220      Zr  0.50104976  0.02651144  0.52962639     2.06300
Zr221      Zr  0.35681506  0.89215317  0.53057921     2.10000
Zr222      Zr  0.38848051  0.99944692  0.62543381     1.78800
O223        O  0.32544501  0.83137617  0.47193330    -0.91800
O224        O  0.41100974  0.07337191  0.67216303    -0.39600
O225        O  0.33961214  0.98130030  0.55135238    -0.76200
O226        O  0.40973974  0.04605177  0.55168431    -0.94900
O227        O  0.45357584  0.00790032  0.45485243    -0.88200
O228        O  0.37806241  0.93694173  0.45571609    -0.91100
C229        C  0.46802719  0.92560979  0.71097730     1.02700
C230        C  0.43771492  0.78266674  0.57012949     1.15600
C231        C  0.60910543  0.95226156  0.58351296     1.06400
O232        O  0.52635480  0.09079310  0.58795374    -0.93200
O233        O  0.46822536  0.11231650  0.49862379    -0.89000
O234        O  0.38864513  0.10971464  0.46082965    -0.82100
C235        C  0.42689985  0.13301083  0.47479374     1.13000
O236        O  0.54227838  0.85068368  0.42165998    -0.95200
Zr237      Zr  0.46882908  0.91910248  0.43434074     1.88900
O238        O  0.36333558  0.02345572  0.38351034    -0.71800
O239        O  0.56308298  0.04398569  0.46376215    -0.51100
O240        O  0.53829161  0.95001573  0.38478926    -0.95800
O241        O  0.44377148  0.84589586  0.38799695    -0.53000
O242        O  0.42532176  0.95775241  0.35841178    -0.72400
C243        C  0.38884421  0.99516980  0.34929286     1.00000
O244        O  0.29262515  0.09777644  0.49001609    -0.61200
O245        O  0.29756195  0.87312783  0.59849237    -0.56000
O246        O  0.27489639  0.00504584  0.46190151    -0.92700
O247        O  0.26946962  0.92780470  0.49929922    -0.91100
O248        O  0.31853039  0.96789093  0.67361125    -0.91400
O249        O  0.31442419  0.06632585  0.64064110    -0.90200
C250        C  0.24952775  0.96865101  0.47542679     1.18800
H251        H  0.39642774  0.88959588  0.63404388     0.34800
H252        H  0.40097038  0.08204241  0.55972727     0.45600
H253        H  0.35615827  0.92922028  0.42756737     0.39200
H254        H  0.55540219  0.92750947  0.49968118     0.35600
H255        H  0.39849443  0.06892339  0.70743704     0.27400
H256        H  0.58526089  0.06705552  0.48040963     0.33400
H257        H  0.53234940  0.93951246  0.34919270     0.39300
H258        H  0.32266861  0.98009434  0.70895121     0.33700
H259        H  0.26850236  0.85942709  0.58068131     0.32600
H260        H  0.29695691  0.81773036  0.49073348     0.34300
H261        H  0.44770444  0.85420926  0.35144600     0.33300
H262        H  0.30488571  0.08058290  0.60638005     0.37300
H263        H  0.26648803  0.08450635  0.51234529     0.30000
H264        H  0.58096130  0.82313153  0.62483733     0.34200
H265        H  0.54731071  0.84756371  0.38424005     0.37100
H266        H  0.31660944  0.84315521  0.61668285     0.29700
H267        H  0.30778390  0.12219860  0.51245255     0.42600
H268        H  0.53185486  0.07294058  0.62120186     0.32600
H269        H  0.44983230  0.06726776  0.67489521     0.40200
H270        H  0.40535213  0.84793355  0.39316067     0.32100
H271        H  0.58674454  0.01120481  0.45924364     0.32100
H272        H  0.58795408  0.82076690  0.56507443     0.32400
C273        C  0.16729998  0.44219884  0.46452143    -0.17100
C274        C  0.21408490  0.43214451  0.45706023     0.06900
C275        C  0.26890798  0.41738786  0.45041782     0.08800
C276        C  0.31577302  0.40389220  0.44666739    -0.18000
C277        C  0.39349390  0.39784350  0.39412263    -0.17100
C278        C  0.41216720  0.40246216  0.35248920     0.06900
C279        C  0.43203705  0.40575605  0.30269178     0.08800
C280        C  0.44331780  0.40885762  0.25833442    -0.18000
C281        C  0.42112550  0.18723023  0.46577260    -0.17100
C282        C  0.41169679  0.23322295  0.46187312     0.06900
C283        C  0.39772334  0.28693298  0.45879294     0.08800
C284        C  0.38555812  0.33269512  0.45458802    -0.18000
C285        C  0.39452413  0.23318470  0.07402241    -0.17100
C286        C  0.38300299  0.19070160  0.08011433     0.06900
C287        C  0.36869491  0.14114084  0.08641849     0.08800
C288        C  0.35689284  0.09866039  0.09195783    -0.18000
C289        C  0.37560408  0.00604300  0.29657768    -0.17100
C290        C  0.36566972  0.01457942  0.25200584     0.06900
C291        C  0.35562721  0.02463211  0.19949026     0.08800
C292        C  0.34898797  0.03385542  0.15451203    -0.18000
C293        C  0.29068879  0.04309247  0.08142233    -0.17100
C294        C  0.24805414  0.03760379  0.06442821     0.06900
C295        C  0.19850653  0.02870519  0.04542009     0.08800
C296        C  0.15533713  0.01961578  0.03341407    -0.18000
C297        C  0.98567226  0.41165245  0.29686160    -0.17100
C298        C  0.99557662  0.40313024  0.25228098     0.06900
C299        C  0.00556431  0.39311777  0.19974843     0.08800
C300        C  0.01213384  0.38394711  0.15475166    -0.18000
C301        C  0.07028693  0.37477769  0.08154189    -0.17100
C302        C  0.11287732  0.38028440  0.06444960     0.06900
C303        C  0.16237289  0.38921213  0.04532832     0.08800
C304        C  0.20551748  0.39831950  0.03325387    -0.18000
C305        C  0.96636009  0.18474662  0.07414994    -0.17100
C306        C  0.97789719  0.22722061  0.08025926     0.06900
C307        C  0.99223618  0.27676553  0.08658790     0.08800
C308        C  0.00407187  0.31923033  0.09214723    -0.18000
C309        C  0.94016846  0.23047194  0.46603967    -0.17100
C310        C  0.94961650  0.18448269  0.46210924     0.06900
C311        C  0.96361205  0.13077765  0.45897495     0.08800
C312        C  0.97577732  0.08502066  0.45471244    -0.18000
C313        C  0.19402936  0.97547732  0.46431259    -0.17100
C314        C  0.14723677  0.98554059  0.45689533     0.06900
C315        C  0.09240476  0.00030786  0.45032255     0.08800
C316        C  0.04553479  0.01381436  0.44664069    -0.18000
C317        C  0.91762990  0.00898650  0.25849567    -0.17100
C318        C  0.92899838  0.01207129  0.30283368     0.06900
C319        C  0.94897907  0.01535115  0.35259151     0.08800
C320        C  0.96773263  0.01994282  0.39419521    -0.18000
C321        C  0.47323919  0.91479816  0.99029319    -0.17100
C322        C  0.44393365  0.94477468  0.01544746     0.06900
C323        C  0.41035474  0.97997946  0.04540318     0.08800
C324        C  0.38123552  0.01009181  0.07059371    -0.18000
C325        C  0.49873494  0.82626653  0.96921553    -0.17100
C326        C  0.48773312  0.78342605  0.97387702     0.06900
C327        C  0.47446530  0.73336100  0.97852123     0.08800
C328        C  0.46376217  0.69047642  0.98346405    -0.18000
C329        C  0.70163957  0.90478533  0.02132687    -0.17100
C330        C  0.65767825  0.89689620  0.01101564     0.06900
C331        C  0.60717830  0.88843565  0.99452124     0.08800
C332        C  0.56405488  0.88273364  0.97908581    -0.18000
C333        C  0.50575073  0.89066493  0.90644767    -0.17100
C334        C  0.49975440  0.89874996  0.86124554     0.06900
C335        C  0.49065570  0.90734110  0.80843337     0.08800
C336        C  0.48126754  0.91500527  0.76366942    -0.18000
C337        C  0.88772777  0.50314641  0.99061405    -0.17100
C338        C  0.91702303  0.47318697  0.01579983     0.06900
C339        C  0.95060117  0.43797189  0.04575100     0.08800
C340        C  0.97973260  0.40783032  0.07090307    -0.18000
C341        C  0.85536281  0.52718318  0.90669793    -0.17100
C342        C  0.86146109  0.51905020  0.86151444     0.06900
C343        C  0.87067146  0.51040081  0.80872678     0.08800
C344        C  0.88012395  0.50270016  0.76397983    -0.18000
C345        C  0.79691114  0.53514647  0.97922252    -0.17100
C346        C  0.75375309  0.52944904  0.99456749     0.06900
C347        C  0.70321262  0.52100881  0.01096170     0.08800
C348        C  0.65922972  0.51314127  0.02121426    -0.18000
C349        C  0.86220662  0.59165169  0.96942824    -0.17100
C350        C  0.87317646  0.63450576  0.97406611     0.06900
C351        C  0.88642429  0.68457924  0.97868410     0.08800
C352        C  0.89712045  0.72746660  0.98361446    -0.18000
C353        C  0.39874007  0.41669962  0.48270297    -0.17100
C354        C  0.42000456  0.44178811  0.51267727     0.06900
C355        C  0.44481530  0.47202832  0.54690465     0.08800
C356        C  0.46584928  0.49806039  0.57615089    -0.18000
C357        C  0.69673459  0.47235956  0.59511958    -0.17100
C358        C  0.64996215  0.48277034  0.60264604     0.06900
C359        C  0.59515208  0.49817223  0.60905441     0.08800
C360        C  0.54831297  0.51232845  0.61213267    -0.18000
C361        C  0.41539700  0.51677995  0.79855219    -0.17100
C362        C  0.42763236  0.51963607  0.75431734     0.06900
C363        C  0.44900179  0.52150928  0.70479073     0.08800
C364        C  0.46899850  0.52374680  0.66330044    -0.18000
C365        C  0.44543610  0.72786250  0.57554065    -0.17100
C366        C  0.45527399  0.68199095  0.58068389     0.06900
C367        C  0.46868655  0.62866312  0.58843289     0.08800
C368        C  0.47988497  0.58349499  0.59748643    -0.18000
C369        C  0.96260628  0.00099427  0.48276471    -0.17100
C370        C  0.94135307  0.97589869  0.51274235     0.06900
C371        C  0.91654043  0.94566365  0.54697500     0.08800
C372        C  0.89549292  0.91963858  0.57621826    -0.18000
C373        C  0.91599832  0.68982373  0.57575080    -0.17100
C374        C  0.90614194  0.73570040  0.58083965     0.06900
C375        C  0.89268728  0.78903306  0.58852872     0.08800
C376        C  0.88144948  0.83420440  0.59754732    -0.18000
C377        C  0.94554985  0.90102683  0.79873067    -0.17100
C378        C  0.93337832  0.89813215  0.75448043     0.06900
C379        C  0.91211231  0.89622918  0.70491020     0.08800
C380        C  0.89220700  0.89397672  0.66337670    -0.18000
C381        C  0.66459601  0.94540359  0.59486182    -0.17100
C382        C  0.71135770  0.93497370  0.60243810     0.06900
C383        C  0.76615221  0.91953998  0.60892479     0.08800
C384        C  0.81298270  0.90536714  0.61207724    -0.18000
loop_ 
_geom_bond_atom_site_label_1 
_geom_bond_atom_site_label_2 
_geom_bond_distance 
_geom_bond_site_symmetry_2 
_ccdc_geom_bond_type 
C1          C372   1.464       .  S
C1          C376   1.467       .  S
C1          C380   1.467       .  S
C1          C384   1.474       .  S
C2          C356   1.464       .  S
C2          C360   1.474       .  S
C2          C364   1.467       .  S
C2          C368   1.467       .  S
C3          C337   1.467       .  S
C3          C341   1.470       .  S
C3          C345   1.469       .  S
C3          C349   1.467       .  S
C4          C321   1.467       .  S
C4          C325   1.467       .  S
C4          C332   1.469       .  S
C4          C333   1.470       .  S
C5          C312   1.466       .  S
C5          C316   1.472   1_655  S
C5          C320   1.462       .  S
C5          C369   1.464       .  S
C6          C300   1.472       .  S
C6          C301   1.471       .  S
C6          C308   1.469       .  S
C6          C340   1.467   1_455  S
C7          C288   1.469       .  S
C7          C292   1.472       .  S
C7          C293   1.471       .  S
C7          C324   1.467       .  S
C8          C276   1.472       .  S
C8          C277   1.462       .  S
C8          C284   1.466       .  S
C8          C353   1.464       .  S
Zr9          O10   2.442       .  S
Zr9          O11   2.435       .  S
Zr9          O12   2.422       .  S
Zr9          O15   2.418       .  S
Zr9          O17   2.381       .  S
Zr9          O18   2.376   1_556  S
Zr9          O19   2.405       .  S
Zr9          O20   2.400   1_556  S
O10          H66   0.991       .  S
O10          H74   0.990       .  S
O11          C31   1.282       .  A
O12          C33   1.279       .  A
O13         Zr23   2.443       .  S
O13          C32   1.285       .  A
O14         Zr22   2.443   1_655  S
O14          C33   1.285       .  A
O15          C32   1.280   1_556  A
O16         Zr24   2.421       .  S
O16          C31   1.280   1_554  A
O17         Zr22   2.403   1_655  S
O17         Zr24   2.381   1_556  S
O18         Zr23   2.391       .  S
O18         Zr24   2.376       .  S
O18          H53   0.966       .  S
O19         Zr22   2.405   1_655  S
O19         Zr39   2.392   1_565  S
O19          H56   0.965       .  S
O20         Zr23   2.390       .  S
O20         Zr39   2.397   1_564  S
Zr21         O46   2.448   1_645  S
Zr21         O40   2.429       .  S
Zr21         O48   2.414       .  S
Zr21         O36   2.415   1_655  S
Zr21         O27   2.395   1_545  S
Zr21         O28   2.400   1_645  S
Zr21         O29   2.374       .  S
Zr21         O30   2.381       .  S
Zr22         O41   2.436   1_565  S
Zr22         O34   2.435       .  S
Zr22         O35   2.455       .  S
Zr22         O28   2.395   1_556  S
Zr22         O29   2.389   1_466  S
Zr23         O25   2.435   1_565  S
Zr23         O47   2.438       .  S
Zr23         O49   2.436       .  S
Zr23         O27   2.392       .  S
Zr23         O30   2.392   1_565  S
Zr24         O50   2.436       .  S
Zr24         O51   2.436   1_655  S
Zr24         O26   2.436   1_655  S
Zr24         O27   2.392       .  S
Zr24         O28   2.394   1_655  S
O25          H62   0.990       .  S
O26          H57   0.990       .  S
O26          H71   0.990   1_554  S
O28          H54   0.966       .  S
O29         Zr39   2.375   1_554  S
O30         Zr39   2.380   1_554  S
O30          H55   0.966       .  S
C31         C352   1.435       .  S
C32         C329   1.437       .  S
C33         C377   1.433       .  S
O34          H70   0.990       .  S
O35          C37   1.288   1_566  A
O36          C37   1.280       .  A
C37         C296   1.438       .  S
O38         Zr39   2.441       .  S
O38          H67   0.990       .  S
Zr39         O42   2.437       .  S
Zr39         O43   2.440   1_556  S
Zr39         O44   2.431   1_556  S
O40          C45   1.282       .  A
O41          H58   0.990   1_545  S
O41          H73   0.990       .  S
O42          H59   0.990       .  S
O43          H63   0.990       .  S
O43          H72   0.989       .  S
O44          C45   1.282       .  A
C45         C305   1.437       .  S
O46          H65   0.990       .  S
O46          H69   0.990       .  S
O47          H61   0.990       .  S
O47          H68   0.990       .  S
O48          C52   1.280       .  A
O49          C52   1.284   1_565  A
O50          H60   0.990       .  S
O51          H64   0.990       .  S
C52         C317   1.429       .  S
Zr75         O76   2.442       .  S
Zr75         O77   2.441       .  S
Zr75         O78   2.437       .  S
Zr75         O81   2.426       .  S
Zr75         O83   2.379       .  S
Zr75         O84   2.384       .  S
Zr75         O85   2.407       .  S
Zr75         O86   2.403       .  S
O76         H132   0.991       .  S
O76         H140   0.990       .  S
O77          C97   1.283       .  A
O78          C99   1.282       .  A
O79         Zr89   2.436   1_655  S
O79          C98   1.284       .  A
O80         Zr88   2.443       .  S
O80          C99   1.284       .  A
O81          C98   1.282       .  A
O82         Zr90   2.420       .  S
O82          C97   1.279       .  A
O83         Zr88   2.399       .  S
O83         Zr90   2.382       .  S
O84         Zr89   2.399   1_655  S
O84         Zr90   2.378       .  S
O84         H119   0.966       .  S
O85         Zr88   2.399       .  S
O85        Zr105   2.399       .  S
O85         H122   0.966       .  S
O86         Zr89   2.393   1_655  S
O86        Zr105   2.392       .  S
Zr87        O112   2.449   1_655  S
Zr87        O106   2.438       .  S
Zr87        O114   2.428   1_655  S
Zr87        O102   2.428       .  S
Zr87         O93   2.400   1_655  S
Zr87         O94   2.404       .  S
Zr87         O95   2.381       .  S
Zr87         O96   2.381       .  S
Zr88        O107   2.435       .  S
Zr88        O100   2.435       .  S
Zr88        O101   2.436       .  S
Zr88         O94   2.399       .  S
Zr88         O95   2.393       .  S
Zr89         O91   2.435       .  S
Zr89        O113   2.438       .  S
Zr89        O115   2.447       .  S
Zr89         O93   2.389       .  S
Zr89         O96   2.390   1_455  S
Zr90        O116   2.435   1_655  S
Zr90        O117   2.435   1_655  S
Zr90         O92   2.436       .  S
Zr90         O93   2.395   1_655  S
Zr90         O94   2.392       .  S
O91         H128   0.990       .  S
O92         H123   0.990       .  S
O92         H137   0.990       .  S
O94         H120   0.966       .  S
O95        Zr105   2.377       .  S
O96        Zr105   2.379       .  S
O96         H121   0.966   1_655  S
C97         C344   1.439       .  S
C98         C373   1.435       .  S
C99         C357   1.442       .  S
O100        H136   0.990       .  S
O101        C103   1.284       .  A
O102        C103   1.282       .  A
C103        C309   1.434       .  S
O104       Zr105   2.440       .  S
O104        H133   0.990       .  S
Zr105       O108   2.436       .  S
Zr105       O109   2.439       .  S
Zr105       O110   2.432       .  S
O106        C111   1.284       .  A
O107        H124   0.990       .  S
O107        H139   0.990       .  S
O108        H125   0.990       .  S
O109        H129   0.990       .  S
O109        H138   0.990       .  S
O110        C111   1.282       .  A
C111        C297   1.441       .  S
O112        H131   0.990       .  S
O112        H135   0.990       .  S
O113        H127   0.990       .  S
O113        H134   0.990       .  S
O114        C118   1.282       .  A
O115        C118   1.286       .  A
O116        H126   0.990       .  S
O117        H130   0.990       .  S
C118        C273   1.441       .  S
Zr141       O142   2.442       .  S
Zr141       O143   2.435       .  S
Zr141       O144   2.422       .  S
Zr141       O147   2.418       .  S
Zr141       O149   2.381       .  S
Zr141       O150   2.376   1_556  S
Zr141       O151   2.405       .  S
Zr141       O152   2.400   1_556  S
O142        H198   0.991       .  S
O142        H206   0.990       .  S
O143        C163   1.282       .  A
O144        C165   1.279       .  A
O145       Zr155   2.443       .  S
O145        C164   1.285       .  A
O146       Zr154   2.443       .  S
O146        C165   1.285       .  A
O147        C164   1.280   1_556  A
O148       Zr156   2.421       .  S
O148        C163   1.280   1_554  A
O149       Zr154   2.403       .  S
O149       Zr156   2.381   1_556  S
O150       Zr155   2.391       .  S
O150       Zr156   2.376       .  S
O150        H185   0.966       .  S
O151       Zr154   2.405       .  S
O151       Zr171   2.392       .  S
O151        H188   0.965       .  S
O152       Zr155   2.389       .  S
O152       Zr171   2.397   1_554  S
Zr153       O178   2.448       .  S
Zr153       O172   2.429       .  S
Zr153       O180   2.415       .  S
Zr153       O168   2.415       .  S
Zr153       O159   2.395       .  S
Zr153       O160   2.400       .  S
Zr153       O161   2.374       .  S
Zr153       O162   2.381       .  S
Zr154       O173   2.436       .  S
Zr154       O166   2.435       .  S
Zr154       O167   2.455       .  S
Zr154       O160   2.395   1_556  S
Zr154       O161   2.389   1_556  S
Zr155       O157   2.435       .  S
Zr155       O179   2.438       .  S
Zr155       O181   2.435       .  S
Zr155       O159   2.392       .  S
Zr155       O162   2.392       .  S
Zr156       O182   2.435       .  S
Zr156       O183   2.436       .  S
Zr156       O158   2.436       .  S
Zr156       O159   2.392       .  S
Zr156       O160   2.395       .  S
O157        H194   0.990       .  S
O158        H189   0.990       .  S
O158        H203   0.990   1_554  S
O160        H186   0.966       .  S
O161       Zr171   2.375   1_554  S
O162       Zr171   2.380   1_554  S
O162        H187   0.966       .  S
C163        C328   1.435       .  S
C164        C348   1.437       .  S
C165        C361   1.433       .  S
O166        H202   0.990       .  S
O167        C169   1.288   1_556  A
O168        C169   1.279       .  A
C169        C304   1.438       .  S
O170       Zr171   2.441       .  S
O170        H199   0.990       .  S
Zr171       O174   2.437       .  S
Zr171       O175   2.440   1_556  S
Zr171       O176   2.431   1_556  S
O172        C177   1.282       .  A
O173        H190   0.990       .  S
O173        H205   0.990       .  S
O174        H191   0.990       .  S
O175        H195   0.990       .  S
O175        H204   0.989       .  S
O176        C177   1.282       .  A
C177        C285   1.437       .  S
O178        H197   0.990       .  S
O178        H201   0.990       .  S
O179        H193   0.990       .  S
O179        H200   0.990       .  S
O180        C184   1.280       .  A
O181        C184   1.284       .  A
O182        H192   0.990       .  S
O183        H196   0.990       .  S
C184        C280   1.429       .  S
Zr207       O208   2.442       .  S
Zr207       O209   2.441       .  S
Zr207       O210   2.437       .  S
Zr207       O213   2.426       .  S
Zr207       O215   2.379       .  S
Zr207       O216   2.384       .  S
Zr207       O217   2.407       .  S
Zr207       O218   2.403       .  S
O208        H264   0.991       .  S
O208        H272   0.990       .  S
O209        C229   1.283       .  A
O210        C231   1.282       .  A
O211       Zr221   2.437       .  S
O211        C230   1.284       .  A
O212       Zr220   2.443   1_565  S
O212        C231   1.284       .  A
O213        C230   1.282       .  A
O214       Zr222   2.420       .  S
O214        C229   1.279       .  A
O215       Zr220   2.399   1_565  S
O215       Zr222   2.382       .  S
O216       Zr221   2.399       .  S
O216       Zr222   2.378       .  S
O216        H251   0.966       .  S
O217       Zr220   2.399   1_565  S
O217       Zr237   2.399       .  S
O217        H254   0.966       .  S
O218       Zr221   2.393       .  S
O218       Zr237   2.392       .  S
Zr219       O244   2.449       .  S
Zr219       O238   2.438       .  S
Zr219       O246   2.428       .  S
Zr219       O234   2.428       .  S
Zr219       O225   2.400   1_545  S
Zr219       O226   2.404       .  S
Zr219       O227   2.381       .  S
Zr219       O228   2.381   1_545  S
Zr220       O239   2.435       .  S
Zr220       O232   2.435       .  S
Zr220       O233   2.436       .  S
Zr220       O226   2.399       .  S
Zr220       O227   2.393       .  S
Zr221       O223   2.435       .  S
Zr221       O245   2.438       .  S
Zr221       O247   2.447       .  S
Zr221       O225   2.389       .  S
Zr221       O228   2.390       .  S
Zr222       O248   2.435       .  S
Zr222       O249   2.435   1_565  S
Zr222       O224   2.436   1_565  S
Zr222       O225   2.395       .  S
Zr222       O226   2.392   1_565  S
O223        H260   0.990       .  S
O224        H255   0.990       .  S
O224        H269   0.990       .  S
O226        H252   0.966       .  S
O227       Zr237   2.377   1_545  S
O228       Zr237   2.379       .  S
O228        H253   0.966       .  S
C229        C336   1.439       .  S
C230        C365   1.435       .  S
C231        C381   1.442       .  S
O232        H268   0.990       .  S
O233        C235   1.284       .  A
O234        C235   1.282       .  A
C235        C281   1.434       .  S
O236       Zr237   2.440       .  S
O236        H265   0.990       .  S
Zr237       O240   2.436       .  S
Zr237       O241   2.439       .  S
Zr237       O242   2.432       .  S
O238        C243   1.284   1_545  A
O239        H256   0.990       .  S
O239        H271   0.990       .  S
O240        H257   0.990       .  S
O241        H261   0.990       .  S
O241        H270   0.990       .  S
O242        C243   1.282       .  A
C243        C289   1.441   1_565  S
O244        H263   0.990       .  S
O244        H267   0.990       .  S
O245        H259   0.990       .  S
O245        H266   0.990       .  S
O246        C250   1.282   1_545  A
O247        C250   1.286       .  A
O248        H258   0.990       .  S
O249        H262   0.990       .  S
C250        C313   1.441       .  S
C273        C274   1.209       .  T
C274        C275   1.417       .  S
C275        C276   1.210       .  T
C277        C278   1.204       .  T
C278        C279   1.407       .  S
C279        C280   1.203       .  T
C281        C282   1.205       .  T
C282        C283   1.411       .  S
C283        C284   1.206       .  T
C285        C286   1.207       .  T
C286        C287   1.414       .  S
C287        C288   1.208       .  T
C289        C290   1.209       .  T
C290        C291   1.417       .  S
C291        C292   1.210       .  T
C293        C294   1.209       .  T
C294        C295   1.416       .  S
C295        C296   1.208       .  T
C297        C298   1.209       .  T
C298        C299   1.417   1_655  S
C299        C300   1.210       .  T
C301        C302   1.209       .  T
C302        C303   1.416       .  S
C303        C304   1.208       .  T
C305        C306   1.207       .  T
C306        C307   1.414       .  S
C307        C308   1.208   1_655  T
C309        C310   1.205       .  T
C310        C311   1.411       .  S
C311        C312   1.206       .  T
C313        C314   1.209       .  T
C314        C315   1.417   1_565  S
C315        C316   1.210       .  T
C317        C318   1.203       .  T
C318        C319   1.407       .  S
C319        C320   1.204       .  T
C321        C322   1.206   1_556  T
C322        C323   1.412       .  S
C323        C324   1.206   1_565  T
C325        C326   1.207       .  T
C326        C327   1.412       .  S
C327        C328   1.206       .  T
C329        C330   1.207       .  T
C330        C331   1.414   1_554  S
C331        C332   1.208       .  T
C333        C334   1.209       .  T
C334        C335   1.415       .  S
C335        C336   1.208       .  T
C337        C338   1.207   1_556  T
C338        C339   1.412       .  S
C339        C340   1.207       .  T
C341        C342   1.209       .  T
C342        C343   1.415       .  S
C343        C344   1.208       .  T
C345        C346   1.208       .  T
C346        C347   1.414   1_556  S
C347        C348   1.207       .  T
C349        C350   1.207       .  T
C350        C351   1.412       .  S
C351        C352   1.206       .  T
C353        C354   1.205       .  T
C354        C355   1.409       .  S
C355        C356   1.205       .  T
C357        C358   1.210       .  T
C358        C359   1.419       .  S
C359        C360   1.211       .  T
C361        C362   1.205       .  T
C362        C363   1.412       .  S
C363        C364   1.207       .  T
C365        C366   1.206       .  T
C366        C367   1.412       .  S
C367        C368   1.207       .  T
C369        C370   1.205   1_545  T
C370        C371   1.409       .  S
C371        C372   1.205       .  T
C373        C374   1.206       .  T
C374        C375   1.412       .  S
C375        C376   1.207       .  T
C377        C378   1.205       .  T
C378        C379   1.412       .  S
C379        C380   1.207       .  T
C381        C382   1.210       .  T
C382        C383   1.419       .  S
C383        C384   1.211       .  T
