geometry optimzed in LAMMPS
_audit_creation_date              2020-11-30 
_audit_creation_method            'lammps2cif' 
_symmetry_space_group_name_H-M    'P1' 
_symmetry_Int_Tables_number       1 
_symmetry_cell_setting            triclinic 
loop_ 
_symmetry_equiv_pos_as_xyz 
  x,y,z 
_cell_length_a                    28.24064201363579 
_cell_length_b                    28.58067101678679 
_cell_length_c                    33.55045512419207 
_cell_angle_alpha                 89.95650032205573 
_cell_angle_beta                  89.85351688190471 
_cell_angle_gamma                 90.01234348590789 
loop_ 
_atom_site_label 
_atom_site_type_symbol 
_atom_site_fract_x 
_atom_site_fract_y 
_atom_site_fract_z 
_atom_site_charge 
N1          N  0.19129698  0.33601227  0.20434625    -0.06420
N2          N  0.18285024  0.36591658  0.17513769    -0.58540
N3          N  0.16009548  0.30398206  0.29718262    -0.06100
N4          N  0.13073023  0.31050678  0.32741953    -0.60660
N5          N  0.19268145  0.33687461  0.29647267    -0.05690
N6          N  0.18586029  0.36679656  0.32582275    -0.58510
N7          N  0.15851709  0.30329534  0.20516080    -0.05370
N8          N  0.12672995  0.31064824  0.17697349    -0.61020
C9          C  0.14243270  0.34974876  0.15840176     0.95760
C10         C  0.14763838  0.34952619  0.34519697     0.95540
N11         N  0.19445143  0.16363242  0.29948861    -0.06600
N12         N  0.18674413  0.13451574  0.32937785    -0.59110
N13         N  0.16189737  0.19191409  0.20673940    -0.04720
N14         N  0.13184628  0.18170721  0.17798961    -0.60370
N15         N  0.19546691  0.16012686  0.20823647    -0.06630
N16         N  0.18915627  0.12791127  0.18069157    -0.59380
N17         N  0.16072153  0.19525265  0.29797712    -0.04360
N18         N  0.12937539  0.18839115  0.32657683    -0.60450
Mn19       Mn  0.15877745  0.24865637  0.25149050     1.18440
C20         C  0.14597943  0.15041796  0.34594985     0.97840
C21         C  0.14940438  0.14169906  0.16188307     0.98510
N22         N  0.30483795  0.33894081  0.29537671    -0.06650
N23         N  0.31308601  0.37008068  0.32358572    -0.62960
N24         N  0.33655824  0.30562251  0.20360393    -0.05450
N25         N  0.36689564  0.31427096  0.17444228    -0.63630
N26         N  0.30279638  0.33732312  0.20392090    -0.06160
N27         N  0.30940689  0.36802851  0.17515866    -0.63220
N28         N  0.33860742  0.30722910  0.29493636    -0.05050
N29         N  0.37052025  0.31621604  0.32258886    -0.63910
Mn30       Mn  0.24779639  0.33875782  0.25007630     1.10660
C31         C  0.35421547  0.35553022  0.34027768     0.99060
C32         C  0.34947625  0.35342031  0.15697071     0.99140
N33         N  0.30537332  0.16231153  0.20678995    -0.06170
N34         N  0.31177443  0.13205708  0.17755380    -0.61540
N35         N  0.33928837  0.19710547  0.29773477    -0.05480
N36         N  0.36993334  0.18960030  0.32686666    -0.58270
N37         N  0.30589335  0.16506492  0.29846212    -0.06790
N38         N  0.31300387  0.13521680  0.32768782    -0.61110
N39         N  0.33776365  0.19534328  0.20536418    -0.05780
N40         N  0.36694020  0.18828301  0.17513574    -0.58290
Mn41       Mn  0.25044017  0.16145181  0.25347448     1.20190
Mn42       Mn  0.33972611  0.25122910  0.25033664     1.10090
Cl43       Cl  0.24921368  0.25013641  0.25128336    -0.86260
C44         C  0.34980702  0.14912124  0.15780433     0.96070
C45         C  0.35300141  0.15065741  0.34519725     0.95870
C46         C  0.44634724  0.46056884  0.46893914    -0.02790
C47         C  0.44834879  0.04735860  0.47321514    -0.02790
C48         C  0.04961563  0.45919845  0.46739068    -0.02790
C49         C  0.05199258  0.04538889  0.47295656    -0.02790
C50         C  0.02342918  0.00409964  0.45510024     0.00270
C51         C  0.47439131  0.00464505  0.45521885     0.00270
C52         C  0.44783823  0.45561881  0.03022821    -0.02790
C53         C  0.05070711  0.45425437  0.02936576    -0.02790
C54         C  0.02175914  0.43020855  0.99724237     0.00270
C55         C  0.47462940  0.43088397  0.99756668     0.00270
C56         C  0.05082054  0.04122629  0.03455217    -0.02790
C57         C  0.47556454  0.99724626  0.04744232     0.00270
C58         C  0.02429975  0.99673755  0.04755746     0.00270
C59         C  0.08284631  0.02231883  0.00285746     0.00270
C60         C  0.08231902  0.47666831  0.99926543     0.00270
C61         C  0.47699891  0.07115169  0.00519120     0.00270
C62         C  0.02407654  0.07064581  0.00469272     0.00270
C63         C  0.44918354  0.04232930  0.03506968    -0.02790
C64         C  0.41538345  0.47917056  0.00143241     0.00270
C65         C  0.41590750  0.02509368  0.00351027     0.00270
C66         C  0.42028311  0.43240450  0.43653447    -0.00450
C67         C  0.44810817  0.40641325  0.40969010    -0.12330
C68         C  0.42777531  0.38001986  0.37890084     0.01780
C69         C  0.37817567  0.38024133  0.37348306    -0.00540
C70         C  0.35009308  0.40563691  0.40010070    -0.12270
C71         C  0.36993115  0.43072529  0.43167252     0.01670
H72         H  0.48613549  0.40644214  0.41288396     0.14650
H73         H  0.31193808  0.40571052  0.39633028     0.14650
C74         C  0.33658334  0.45580138  0.45647532     0.36300
C75         C  0.45898251  0.35415880  0.35284729     0.36210
N76         N  0.30935973  0.47598445  0.47575305    -0.44040
N77         N  0.48421542  0.33334075  0.33220821    -0.44040
C78         C  0.37663785  0.12550383  0.37828208    -0.00450
C79         C  0.40444790  0.15022136  0.40562331    -0.12330
C80         C  0.42732910  0.12729074  0.43731563     0.01780
C81         C  0.42256097  0.07789118  0.44217084    -0.00540
C82         C  0.39426543  0.05411036  0.41445242    -0.12270
C83         C  0.37199136  0.07670166  0.38286707     0.01670
H84         H  0.40858804  0.18771976  0.40206598     0.14650
H85         H  0.39105336  0.01691993  0.41622285     0.14650
C86         C  0.34716744  0.04790343  0.35431846     0.36300
C87         C  0.45725775  0.15603995  0.46189305     0.36210
N88         N  0.32762968  0.02457459  0.33146531    -0.44040
N89         N  0.48174093  0.18060991  0.47986829    -0.44040
C90         C  0.07467100  0.43095911  0.43435207    -0.00450
C91         C  0.09191289  0.38575766  0.44363077    -0.12330
C92         C  0.11388216  0.35757155  0.41475796     0.01780
C93         C  0.12236331  0.37562207  0.37644978    -0.00540
C94         C  0.10581989  0.42006333  0.36680115    -0.12270
C95         C  0.08043710  0.44687299  0.39425602     0.01670
H96         H  0.08724357  0.37168816  0.47338771     0.14650
H97         H  0.11097323  0.43310646  0.33666824     0.14650
C98         C  0.05871035  0.48825383  0.37798770     0.36300
C99         C  0.12725579  0.31035673  0.42503571     0.36210
N100        N  0.04094764  0.51996628  0.36267094    -0.44040
N101        N  0.13737131  0.27229308  0.43315067    -0.44040
C102        C  0.37291469  0.37881265  0.12377994    -0.00450
C103        C  0.40478083  0.35468447  0.09915616    -0.12330
C104        C  0.42875046  0.37735463  0.06797874     0.01780
C105        C  0.42122463  0.42595233  0.06105249    -0.00540
C106        C  0.38815798  0.44931842  0.08528295    -0.12270
C107        C  0.36472718  0.42680657  0.11651494     0.01670
H108        H  0.41115873  0.31776769  0.10435088     0.14650
H109        H  0.38093406  0.48596039  0.08020699     0.14650
C110        C  0.33461672  0.45494660  0.14177212     0.36300
C111        C  0.46116663  0.34923617  0.04486211     0.36210
N112        N  0.31090655  0.47774662  0.16214941    -0.44040
N113        N  0.48704881  0.32611760  0.02671322    -0.44040
C114        C  0.12192022  0.12771154  0.38002962    -0.00450
C115        C  0.14971915  0.10364884  0.40759586    -0.12330
C116        C  0.12936432  0.07870060  0.43909770     0.01780
C117        C  0.07890062  0.07627334  0.44299433    -0.00540
C118        C  0.05160166  0.10197688  0.41583031    -0.12270
C119        C  0.07227032  0.12784659  0.38490860     0.01670
H120        H  0.18797417  0.10426625  0.40443942     0.14650
H121        H  0.01363785  0.09953187  0.41727673     0.14650
C122        C  0.04123767  0.15141688  0.35727113     0.36300
C123        C  0.16253961  0.05641285  0.46576349     0.36210
N124        N  0.01610227  0.17020399  0.33526617    -0.44040
N125        N  0.18974916  0.03910583  0.48689524    -0.44040
C126        C  0.07564131  0.42244094  0.06003159    -0.00450
C127        C  0.04876473  0.40720305  0.09300642    -0.12330
C128        C  0.06921141  0.38229918  0.12467295     0.01780
C129        C  0.11818612  0.37283635  0.12450861    -0.00540
C130        C  0.14523653  0.38683278  0.09165884    -0.12270
C131        C  0.12477126  0.41034140  0.05928825     0.01670
H132        H  0.01175796  0.41644174  0.09493418     0.14650
H133        H  0.18278399  0.37880116  0.09110005     0.14650
C134        C  0.15594389  0.42003075  0.02611952     0.36300
C135        C  0.03960582  0.36940202  0.15806766     0.36210
N136        N  0.18142895  0.42720201  0.99973368    -0.44040
N137        N  0.01579628  0.35916357  0.18481418    -0.44040
C138        C  0.37483283  0.12324803  0.12637071    -0.00450
C139        C  0.40738469  0.08928950  0.13799577    -0.12330
C140        C  0.43259907  0.06320929  0.10985647     0.01780
C141        C  0.42439134  0.07021391  0.06826695    -0.00540
C142        C  0.39155351  0.10511245  0.05708649    -0.12270
C143        C  0.36718173  0.13165480  0.08564381     0.01670
H144        H  0.41348098  0.08342658  0.16956384     0.14650
H145        H  0.38510421  0.11195009  0.02577053     0.14650
C146        C  0.33473133  0.16744998  0.07252092     0.36300
C147        C  0.46681600  0.03075539  0.12582203     0.36210
N148        N  0.30886689  0.19625915  0.06192305    -0.44040
N149        N  0.49385429  0.00501373  0.13961752    -0.44200
C150        C  0.07597631  0.06828744  0.06769363    -0.00450
C151        C  0.11674866  0.04842516  0.08481617    -0.12330
C152        C  0.14209757  0.07155370  0.11483884     0.01780
C153        C  0.12606275  0.11532164  0.12931163    -0.00540
C154        C  0.08522455  0.13468284  0.11291401    -0.12270
C155        C  0.06017826  0.11218091  0.08283623     0.01670
H156        H  0.12930625  0.01478516  0.07433594     0.14650
H157        H  0.07227276  0.16803952  0.12386588     0.14650
C158        C  0.01818158  0.13635747  0.07016253     0.36300
C159        C  0.18433088  0.04930540  0.12976348     0.36210
N160        N  0.98528330  0.15857413  0.06233302    -0.44040
N161        N  0.21826536  0.03132691  0.14146846    -0.44040
N162        N  0.19128511  0.33601639  0.70434373    -0.06420
N163        N  0.18283563  0.36591828  0.67513425    -0.58540
N164        N  0.16009165  0.30398751  0.79718118    -0.06100
N165        N  0.13072893  0.31050919  0.82742031    -0.60660
N166        N  0.19267465  0.33688300  0.79646928    -0.05690
N167        N  0.18585373  0.36680385  0.82582006    -0.58510
N168        N  0.15850855  0.30329608  0.70515937    -0.05370
N169        N  0.12672062  0.31064472  0.67697178    -0.61020
C170        C  0.14241988  0.34974598  0.65839896     0.95760
C171        C  0.14763532  0.34952991  0.84519678     0.95540
N172        N  0.19445807  0.16364226  0.79949401    -0.06600
N173        N  0.18675256  0.13452729  0.82938497    -0.59110
N174        N  0.16189716  0.19191277  0.70674273    -0.04720
N175        N  0.13184542  0.18170285  0.67799396    -0.60370
N176        N  0.19546880  0.16012735  0.70824037    -0.06630
N177        N  0.18915833  0.12791003  0.68069624    -0.59380
N178        N  0.16072571  0.19525973  0.79798102    -0.04360
N179        N  0.12938084  0.18839870  0.82658182    -0.60450
Mn180      Mn  0.15877524  0.24865928  0.75149123     1.18440
C181        C  0.14598690  0.15042806  0.84595719     0.97840
C182        C  0.14940426  0.14169467  0.66188813     0.98510
N183        N  0.30483146  0.33896433  0.79536942    -0.06650
N184        N  0.31307860  0.37010123  0.82358152    -0.62960
N185        N  0.33654542  0.30564067  0.70359378    -0.05450
N186        N  0.36688102  0.31428742  0.67443088    -0.63630
N187        N  0.30278312  0.33734050  0.70391139    -0.06160
N188        N  0.30939136  0.36804432  0.67514737    -0.63220
N189        N  0.33860303  0.30725539  0.79492556    -0.05050
N190        N  0.37051592  0.31624005  0.82257826    -0.63910
Mn191      Mn  0.24778637  0.33877168  0.75007080     1.10660
C192        C  0.35421007  0.35555085  0.84027118     0.99060
C193        C  0.34946003  0.35343500  0.65695838     0.99140
N194        N  0.30538089  0.16232437  0.70679397    -0.06170
N195        N  0.31179484  0.13206023  0.67756708    -0.61540
N196        N  0.33929263  0.19714199  0.79772933    -0.05480
N197        N  0.36995017  0.18964624  0.82685271    -0.58270
N198        N  0.30590543  0.16509313  0.79846379    -0.06790
N199        N  0.31303563  0.13524494  0.82768628    -0.61110
N200        N  0.33776451  0.19536248  0.70536368    -0.05780
N201        N  0.36694859  0.18829768  0.67514145    -0.58290
Mn202      Mn  0.25044694  0.16146371  0.75347850     1.20190
Mn203      Mn  0.33972089  0.25125462  0.75032881     1.10090
Cl204      Cl  0.24921030  0.25014923  0.75128035    -0.86260
C205        C  0.34982819  0.14912539  0.65781917     0.96070
C206        C  0.35303460  0.15070000  0.84518520     0.95870
C207        C  0.44634633  0.46056345  0.96894765    -0.02790
C208        C  0.44836292  0.04736112  0.97319305    -0.02790
C209        C  0.04961675  0.45919892  0.96739456    -0.02790
C210        C  0.05200033  0.04539408  0.97296150    -0.02790
C211        C  0.02344458  0.00410205  0.95510021     0.00270
C212        C  0.47441103  0.00464399  0.95521090     0.00270
C213        C  0.44783517  0.45562403  0.53021932    -0.02790
C214        C  0.05070298  0.45425358  0.52936164    -0.02790
C215        C  0.02175533  0.43020910  0.49723755     0.00270
C216        C  0.47462694  0.43088769  0.49755910     0.00270
C217        C  0.05082726  0.04122341  0.53454827    -0.02790
C218        C  0.47557754  0.99724157  0.54745308     0.00270
C219        C  0.02431017  0.99673370  0.54755867     0.00270
C220        C  0.08284497  0.02231447  0.50284901     0.00270
C221        C  0.08231724  0.47666639  0.49926246     0.00270
C222        C  0.47700073  0.07114795  0.50520121     0.00270
C223        C  0.02407661  0.07064054  0.50469182     0.00270
C224        C  0.44919644  0.04232695  0.53508797    -0.02790
C225        C  0.41538340  0.47917774  0.50142244     0.00270
C226        C  0.41590842  0.02509089  0.50354022     0.00270
C227        C  0.42028047  0.43239978  0.93654282    -0.00450
C228        C  0.44810447  0.40641476  0.90969341    -0.12330
C229        C  0.42777045  0.38002991  0.87889919     0.01780
C230        C  0.37817059  0.38025475  0.87348084    -0.00540
C231        C  0.35008886  0.40564214  0.90010465    -0.12270
C232        C  0.36992800  0.43072040  0.93168213     0.01670
H233        H  0.48613200  0.40644310  0.91288638     0.14650
H234        H  0.31193381  0.40571696  0.89633475     0.14650
C235        C  0.33658070  0.45578893  0.95649095     0.36300
C236        C  0.45897701  0.35417369  0.85284157     0.36210
N237        N  0.30935739  0.47596633  0.97577327    -0.44040
N238        N  0.48420936  0.33335907  0.83219947    -0.44040
C239        C  0.37670446  0.12553694  0.87824179    -0.00450
C240        C  0.40438469  0.15026419  0.90566797    -0.12330
C241        C  0.42726434  0.12731723  0.93735332     0.01780
C242        C  0.42260641  0.07789520  0.94212595    -0.00540
C243        C  0.39448614  0.05410177  0.91428705    -0.12270
C244        C  0.37221948  0.07670991  0.88270867     0.01670
H245        H  0.40842228  0.18778284  0.90218330     0.14650
H246        H  0.39143411  0.01689489  0.91593914     0.14650
C247        C  0.34758719  0.04791855  0.85403681     0.36300
C248        C  0.45709153  0.15608301  0.96200159     0.36210
N249        N  0.32820454  0.02459981  0.83108281    -0.44040
N250        N  0.48149446  0.18067955  0.98002695    -0.44040
C251        C  0.07467160  0.43096018  0.93435532    -0.00450
C252        C  0.09190725  0.38575542  0.94363113    -0.12330
C253        C  0.11387361  0.35756943  0.91475661     0.01780
C254        C  0.12236100  0.37562411  0.87645083    -0.00540
C255        C  0.10582481  0.42006883  0.86680549    -0.12270
C256        C  0.08044246  0.44687774  0.89426088     0.01670
H257        H  0.08723473  0.37168303  0.97338673     0.14650
H258        H  0.11098225  0.43311511  0.83667404     0.14650
C259        C  0.05871942  0.48826079  0.87799345     0.36300
C260        C  0.12723695  0.31035039  0.92502988     0.36210
N261        N  0.04095960  0.51997400  0.86267553    -0.44040
N262        N  0.13734360  0.27228327  0.93314093    -0.44040
C263        C  0.37289893  0.37882482  0.62376701    -0.00450
C264        C  0.40476261  0.35469326  0.59914332    -0.12330
C265        C  0.42873649  0.37736136  0.56796734     0.01780
C266        C  0.42121682  0.42596002  0.56104213    -0.00540
C267        C  0.38815135  0.44932923  0.58527175    -0.12270
C268        C  0.36471735  0.42681959  0.61650310     0.01670
H269        H  0.41113600  0.31777560  0.60433753     0.14650
H270        H  0.38093123  0.48597182  0.58019600     0.14650
C271        C  0.33461173  0.45496249  0.64176198     0.36300
C272        C  0.46115047  0.34923988  0.54485121     0.36210
N273        N  0.31090602  0.47776456  0.66214125    -0.44040
N274        N  0.48703084  0.32611902  0.52670262    -0.44040
C275        C  0.12192957  0.12772290  0.88004009    -0.00450
C276        C  0.14972713  0.10362401  0.90758477    -0.12330
C277        C  0.12937323  0.07867279  0.93908512     0.01780
C278        C  0.07891073  0.07628271  0.94300453    -0.00540
C279        C  0.05161348  0.10203211  0.91587012    -0.12270
C280        C  0.07228242  0.12789777  0.88494550     0.01670
H281        H  0.18798065  0.10421304  0.90441167     0.14650
H282        H  0.01364785  0.09963608  0.91734650     0.14650
C283        C  0.04124867  0.15150708  0.85733312     0.36300
C284        C  0.16254779  0.05634453  0.96572676     0.36210
N285        N  0.01611174  0.17032393  0.83534779    -0.44040
N286        N  0.18975802  0.03900816  0.98684038    -0.44040
C287        C  0.07563419  0.42243833  0.56002753    -0.00450
C288        C  0.04875493  0.40719891  0.59300039    -0.12330
C289        C  0.06919920  0.38229310  0.62466697     0.01780
C290        C  0.11817372  0.37282985  0.62450424    -0.00540
C291        C  0.14522630  0.38682677  0.59165604    -0.12270
C292        C  0.12476381  0.41033751  0.55928569     0.01670
H293        H  0.01174820  0.41643822  0.59492675     0.14650
H294        H  0.18277377  0.37879496  0.59109883     0.14650
C295        C  0.15593938  0.42002817  0.52611921     0.36300
C296        C  0.03959185  0.36939507  0.65806032     0.36210
N297        N  0.18142706  0.42720003  0.49973528    -0.44040
N298        N  0.01578101  0.35915588  0.68480582    -0.44040
C299        C  0.37485956  0.12325357  0.62638851    -0.00450
C300        C  0.40740683  0.08929027  0.63801442    -0.12330
C301        C  0.43262276  0.06321109  0.60987487     0.01780
C302        C  0.42441761  0.07021950  0.56828625    -0.00540
C303        C  0.39159059  0.10512758  0.55710540    -0.12270
C304        C  0.36721941  0.13167005  0.58566192     0.01670
H305        H  0.41349774  0.08342253  0.66958252     0.14650
H306        H  0.38514728  0.11197070  0.52578928     0.14650
C307        C  0.33477806  0.16747314  0.57253852     0.36300
C308        C  0.46683606  0.03075156  0.62583755     0.36210
N309        N  0.30892098  0.19628867  0.56194045    -0.44040
N310        N  0.49387224  0.00500499  0.63962934    -0.44200
C311        C  0.07598535  0.06828902  0.56768685    -0.00450
C312        C  0.11674568  0.04841798  0.58482197    -0.12330
C313        C  0.14209086  0.07154347  0.61484909     0.01780
C314        C  0.12606461  0.11531862  0.62931330    -0.00540
C315        C  0.08523899  0.13469075  0.61290097    -0.12270
C316        C  0.06019692  0.11219220  0.58281795     0.01670
H317        H  0.12929587  0.01477231  0.57434888     0.14650
H318        H  0.07229512  0.16805433  0.62384394     0.14650
C319        C  0.01821677  0.13638340  0.57012162     0.36300
C320        C  0.18431011  0.04928286  0.62978904     0.36210
N321        N  0.98533085  0.15860420  0.56226242    -0.44040
N322        N  0.21823307  0.03129375  0.64150606    -0.44040
N323        N  0.19128860  0.83601700  0.20434446    -0.06420
N324        N  0.18283786  0.86591988  0.17513605    -0.58540
N325        N  0.16009665  0.80398967  0.29718224    -0.06100
N326        N  0.13073434  0.81051232  0.32742140    -0.60660
N327        N  0.19268006  0.83688479  0.29646958    -0.05690
N328        N  0.18585984  0.86680634  0.32582004    -0.58510
N329        N  0.15851083  0.80329808  0.20516143    -0.05370
N330        N  0.12672092  0.81064825  0.17697585    -0.61020
C331        C  0.14242013  0.84974928  0.15840298     0.95760
C332        C  0.14764148  0.84953303  0.34519726     0.95540
N333        N  0.19445820  0.66364289  0.29949236    -0.06600
N334        N  0.18675214  0.63452562  0.32938149    -0.59110
N335        N  0.16189682  0.69191663  0.20674254    -0.04720
N336        N  0.13184436  0.68170713  0.17799417    -0.60370
N337        N  0.19546843  0.66013133  0.20823908    -0.06630
N338        N  0.18915741  0.62791434  0.18069494    -0.59380
N339        N  0.16072652  0.69526102  0.29798071    -0.04360
N340        N  0.12938066  0.68839788  0.32658031    -0.60450
Mn341      Mn  0.15877751  0.74866172  0.25149224     1.18440
C342        C  0.14598640  0.65042560  0.34595355     0.97840
C343        C  0.14940304  0.64169917  0.16188765     0.98510
N344        N  0.30483671  0.83896701  0.29536702    -0.06650
N345        N  0.31308622  0.87011283  0.32357139    -0.62960
N346        N  0.33655103  0.80563835  0.20359431    -0.05450
N347        N  0.36688627  0.81428485  0.17443088    -0.63630
N348        N  0.30278764  0.83733728  0.20391063    -0.06160
N349        N  0.30939499  0.86803993  0.17514561    -0.63220
N350        N  0.33861034  0.80725961  0.29492507    -0.05050
N351        N  0.37052920  0.81625635  0.32257053    -0.63910
Mn352      Mn  0.24779097  0.83877139  0.25007012     1.10660
C353        C  0.35422250  0.85557143  0.34025674     0.99060
C354        C  0.34946405  0.85343128  0.15695700     0.99140
N355        N  0.30537846  0.66232543  0.20679279    -0.06170
N356        N  0.31178624  0.63206466  0.17756252    -0.61540
N357        N  0.33929261  0.69713450  0.29773231    -0.05480
N358        N  0.36994396  0.68963228  0.32685974    -0.58270
N359        N  0.30590136  0.66508967  0.29846258    -0.06790
N360        N  0.31302125  0.63524081  0.32768603    -0.61110
N361        N  0.33776589  0.69535996  0.20536436    -0.05780
N362        N  0.36694672  0.68829559  0.17513967    -0.58290
Mn363      Mn  0.25044556  0.66146517  0.25347680     1.20190
Mn364      Mn  0.33972576  0.75125208  0.25033093     1.10090
Cl365      Cl  0.24921364  0.75014992  0.25128134    -0.86260
C366        C  0.34981981  0.64912788  0.15781401     0.96070
C367        C  0.35301963  0.65068705  0.34519048     0.95870
C368        C  0.44634479  0.96056613  0.46894914    -0.02790
C369        C  0.44835441  0.54736225  0.47320093    -0.02790
C370        C  0.04961385  0.95919735  0.46739225    -0.02790
C371        C  0.05199584  0.54539078  0.47295520    -0.02790
C372        C  0.02343463  0.50410135  0.45509679     0.00270
C373        C  0.47439821  0.50464614  0.45521100     0.00270
C374        C  0.44783565  0.95562375  0.03021705    -0.02790
C375        C  0.05070333  0.95425582  0.02936666    -0.02790
C376        C  0.02176000  0.93021038  0.99724138     0.00270
C377        C  0.47463303  0.93088814  0.99756107     0.00270
C378        C  0.05082416  0.54122582  0.03455041    -0.02790
C379        C  0.47556932  0.49724230  0.04745175     0.00270
C380        C  0.02430686  0.49673603  0.04755947     0.00270
C381        C  0.08284454  0.52231757  0.00285251     0.00270
C382        C  0.08232081  0.97666924  0.99926975     0.00270
C383        C  0.47699428  0.57114793  0.00519955     0.00270
C384        C  0.02407468  0.57064293  0.00469292     0.00270
C385        C  0.44918673  0.54232585  0.03508331    -0.02790
C386        C  0.41538668  0.97917443  0.00141534     0.00270
C387        C  0.41590353  0.52508859  0.00353145     0.00270
C388        C  0.42028182  0.93240538  0.43654047    -0.00450
C389        C  0.44811518  0.90650364  0.40963930    -0.12330
C390        C  0.42778749  0.88013475  0.37883237     0.01780
C391        C  0.37818108  0.88028058  0.37346274    -0.00540
C392        C  0.35008938  0.90558538  0.40013585    -0.12270
C393        C  0.36992610  0.93065302  0.43172114     0.01670
H394        H  0.48614585  0.90659187  0.41279665     0.14650
H395        H  0.31192927  0.90559824  0.39640062     0.14650
C396        C  0.33656659  0.95561856  0.45659332     0.36300
C397        C  0.45900362  0.85438901  0.35270322     0.36210
N398        N  0.30933241  0.97571117  0.47592919    -0.44040
N399        N  0.48424353  0.83366672  0.33200015    -0.44040
C400        C  0.37667099  0.62552693  0.37826148    -0.00450
C401        C  0.40442658  0.65024643  0.40563960    -0.12330
C402        C  0.42730605  0.62730661  0.43732822     0.01780
C403        C  0.42258250  0.57789735  0.44214695    -0.00540
C404        C  0.39436170  0.55411301  0.41437598    -0.12270
C405        C  0.37209182  0.57671379  0.38279431     0.01670
H406        H  0.40852438  0.68775352  0.40211443     0.14650
H407        H  0.39121709  0.51691519  0.41609450     0.14650
C408        C  0.34734848  0.54792039  0.35419228     0.36300
C409        C  0.45719350  0.65606078  0.46193594     0.36210
N410        N  0.32787576  0.52459736  0.33129553    -0.44040
N411        N  0.48164440  0.68064042  0.47993237    -0.44040
C412        C  0.07467009  0.93095972  0.43435323    -0.00450
C413        C  0.09191704  0.88576026  0.44363214    -0.12330
C414        C  0.11388792  0.85757593  0.41475905     0.01780
C415        C  0.12236707  0.87562743  0.37645093    -0.00540
C416        C  0.10581930  0.92006700  0.36680226    -0.12270
C417        C  0.08043335  0.94687368  0.39425698     0.01670
H418        H  0.08725000  0.87169067  0.47338931     0.14650
H419        H  0.11096975  0.93310992  0.33666893     0.14650
C420        C  0.05869496  0.98824748  0.37798691     0.36300
C421        C  0.12726406  0.81036156  0.42503606     0.36210
N422        N  0.04092206  0.01995253  0.36266751    -0.44040
N423        N  0.13738118  0.77229809  0.43315024    -0.44040
C424        C  0.37290172  0.87882135  0.12376471    -0.00450
C425        C  0.40476972  0.85469195  0.09914347    -0.12330
C426        C  0.42874245  0.87736075  0.06796711     0.01780
C427        C  0.42121713  0.92595816  0.06103885    -0.00540
C428        C  0.38814692  0.94932484  0.08526545    -0.12270
C429        C  0.36471417  0.92681457  0.11649727     0.01670
H430        H  0.41114753  0.81777549  0.10433998     0.14650
H431        H  0.38092251  0.98596618  0.08018725     0.14650
C432        C  0.33460355  0.95495577  0.14175318     0.36300
C433        C  0.46116067  0.84924109  0.04485353     0.36210
N434        N  0.31089382  0.97775625  0.16213041    -0.44040
N435        N  0.48704427  0.82612164  0.02670687    -0.44040
C436        C  0.12192705  0.62771701  0.38003273    -0.00450
C437        C  0.14972471  0.60363995  0.40759097    -0.12330
C438        C  0.12936924  0.57868923  0.43909106     0.01780
C439        C  0.07890587  0.57627582  0.44299505    -0.00540
C440        C  0.05160832  0.60199587  0.41584120    -0.12270
C441        C  0.07227792  0.62786525  0.38491965     0.01670
H442        H  0.18797927  0.60424730  0.40442935     0.14650
H443        H  0.01364383  0.59956800  0.41729728     0.14650
C444        C  0.04124550  0.65144990  0.35729092     0.36300
C445        C  0.16254333  0.55638469  0.46574764     0.36210
N446        N  0.01611002  0.67024794  0.33529278    -0.44040
N447        N  0.18975238  0.53906523  0.48687245    -0.44040
C448        C  0.07563328  0.92244095  0.06003311    -0.00450
C449        C  0.04875459  0.90720504  0.09300746    -0.12330
C450        C  0.06919916  0.88229938  0.12467396     0.01780
C451        C  0.11817313  0.87283340  0.12450937    -0.00540
C452        C  0.14522459  0.88682599  0.09165945    -0.12270
C453        C  0.12476167  0.91033546  0.05928900     0.01670
H454        H  0.01174822  0.91644602  0.09493448     0.14650
H455        H  0.18277130  0.87879071  0.09110060     0.14650
C456        C  0.15593500  0.92001725  0.02611917     0.36300
C457        C  0.03959288  0.86940345  0.15806857     0.36210
N458        N  0.18142127  0.92718117  0.99973274    -0.44040
N459        N  0.01578288  0.85916572  0.18481500    -0.44040
C460        C  0.37484774  0.62325389  0.12638263    -0.00450
C461        C  0.40739731  0.58929319  0.13800875    -0.12330
C462        C  0.43261045  0.56321103  0.10986971     0.01780
C463        C  0.42440235  0.57021545  0.06828075    -0.00540
C464        C  0.39156985  0.60511842  0.05709950    -0.12270
C465        C  0.36719977  0.63166260  0.08565585     0.01670
H466        H  0.41349214  0.58342968  0.16957690     0.14650
H467        H  0.38512219  0.61195701  0.02578338     0.14650
C468        C  0.33475251  0.66746022  0.07253205     0.36300
C469        C  0.46682522  0.53075400  0.12583384     0.36210
N470        N  0.30889048  0.69627117  0.06193353    -0.44040
N471        N  0.49386230  0.50500966  0.13962738    -0.44200
C472        C  0.07598141  0.56829063  0.06768985    -0.00450
C473        C  0.11674559  0.54842274  0.08482126    -0.12330
C474        C  0.14209161  0.57154942  0.11484714     0.01780
C475        C  0.12606246  0.61532231  0.12931400    -0.00540
C476        C  0.08523273  0.63469058  0.11290612    -0.12270
C477        C  0.06018959  0.61219065  0.08282458     0.01670
H478        H  0.12929836  0.51477888  0.07434607     0.14650
H479        H  0.07228609  0.66805190  0.12385186     0.14650
C480        C  0.01820385  0.63637655  0.07013534     0.36300
C481        C  0.18431510  0.54929274  0.12978268     0.36210
N482        N  0.98531352  0.65859530  0.06228553    -0.44040
N483        N  0.21824152  0.53130704  0.14149631    -0.44040
N484        N  0.19129690  0.83601379  0.70434668    -0.06420
N485        N  0.18285139  0.86591747  0.67513732    -0.58540
N486        N  0.16009337  0.80398189  0.79718226    -0.06100
N487        N  0.13072798  0.81050613  0.82741924    -0.60660
N488        N  0.19267995  0.83687394  0.79647334    -0.05690
N489        N  0.18585896  0.86679500  0.82582408    -0.58510
N490        N  0.15851733  0.80329631  0.70516013    -0.05370
N491        N  0.12673182  0.81064835  0.67697144    -0.61020
C492        C  0.14243500  0.84974877  0.65839991     0.95760
C493        C  0.14763650  0.84952481  0.84519767     0.95540
N494        N  0.19444790  0.66363252  0.79948822    -0.06600
N495        N  0.18674070  0.63451748  0.82937866    -0.59110
N496        N  0.16189444  0.69191365  0.70673802    -0.04720
N497        N  0.13184340  0.68170698  0.67798791    -0.60370
N498        N  0.19546354  0.66012582  0.70823559    -0.06630
N499        N  0.18915255  0.62791027  0.68069062    -0.59380
N500        N  0.16071830  0.69525306  0.79797618    -0.04360
N501        N  0.12937290  0.68839359  0.82657686    -0.60450
Mn502      Mn  0.15877519  0.74865664  0.75148940     1.18440
C503        C  0.14597661  0.65042109  0.84595104     0.97840
C504        C  0.14940087  0.64169833  0.66188168     0.98510
N505        N  0.30483707  0.83893617  0.79538029    -0.06650
N506        N  0.31308414  0.87006648  0.82359724    -0.62960
N507        N  0.33655648  0.80562362  0.70360414    -0.05450
N508        N  0.36689460  0.81427184  0.67444296    -0.63630
N509        N  0.30279648  0.83732597  0.70392233    -0.06160
N510        N  0.30940892  0.86803258  0.67516119    -0.63220
N511        N  0.33860266  0.80722110  0.79493850    -0.05050
N512        N  0.37050928  0.81619386  0.82259899    -0.63910
Mn513      Mn  0.24779592  0.83875853  0.75007785     1.10660
C514        C  0.35420743  0.85550458  0.84029463     0.99060
C515        C  0.34947765  0.85342302  0.65697274     0.99140
N516        N  0.30537225  0.66231074  0.70679008    -0.06170
N517        N  0.31177890  0.63205347  0.67755689    -0.61540
N518        N  0.33928504  0.69710863  0.79773183    -0.05480
N519        N  0.36993344  0.68960827  0.82686147    -0.58270
N520        N  0.30589223  0.66506592  0.79846193    -0.06790
N521        N  0.31300873  0.63521870  0.82768751    -0.61110
N522        N  0.33776046  0.69534454  0.70536385    -0.05780
N523        N  0.36694087  0.68828336  0.67513852    -0.58290
Mn524      Mn  0.25043762  0.66145094  0.75347426     1.20190
Mn525      Mn  0.33972171  0.75122890  0.75033532     1.10090
Cl526      Cl  0.24921056  0.75013614  0.75128216    -0.86260
C527        C  0.34981273  0.64911845  0.65780944     0.96070
C528        C  0.35300651  0.65066545  0.84519343     0.95870
C529        C  0.44635735  0.96056659  0.96893637    -0.02790
C530        C  0.44834890  0.54735679  0.97320902    -0.02790
C531        C  0.04962307  0.95919984  0.96739575    -0.02790
C532        C  0.05199341  0.54539165  0.97295903    -0.02790
C533        C  0.02343316  0.50410066  0.95510121     0.00270
C534        C  0.47439457  0.50464236  0.95521869     0.00270
C535        C  0.44784314  0.95561917  0.53022958    -0.02790
C536        C  0.05070802  0.95425178  0.52936319    -0.02790
C537        C  0.02175755  0.93020659  0.49724048     0.00270
C538        C  0.47463039  0.93088414  0.49756466     0.00270
C539        C  0.05082345  0.54122498  0.53454636    -0.02790
C540        C  0.47556819  0.49724529  0.54744401     0.00270
C541        C  0.02430384  0.49673623  0.54755481     0.00270
C542        C  0.08284467  0.52231556  0.50284955     0.00270
C543        C  0.08231813  0.97666560  0.49926190     0.00270
C544        C  0.47699931  0.57115106  0.50519259     0.00270
C545        C  0.02407690  0.57064338  0.50468840     0.00270
C546        C  0.44918882  0.54233026  0.53507535    -0.02790
C547        C  0.41538677  0.97917382  0.50143726     0.00270
C548        C  0.41590609  0.52509564  0.50352196     0.00270
C549        C  0.42029009  0.93239932  0.93653549    -0.00450
C550        C  0.44810301  0.90630320  0.90975631    -0.12330
C551        C  0.42776196  0.87989021  0.87898264     0.01780
C552        C  0.37817080  0.88021047  0.87350377    -0.00540
C553        C  0.35010136  0.90571106  0.90005865    -0.12270
C554        C  0.36994264  0.93081354  0.93162020     0.01670
H555        H  0.48612619  0.90625668  0.91299516     0.14650
H556        H  0.31195300  0.90586317  0.89624430     0.14650
C557        C  0.33661095  0.95602186  0.95634124     0.36300
C558        C  0.45895644  0.85389200  0.85301796     0.36210
N559        N  0.30940161  0.97631376  0.97554991    -0.44040
N560        N  0.48417927  0.83295968  0.83245438    -0.44040
C561        C  0.37665564  0.62550989  0.87826788    -0.00450
C562        C  0.40440886  0.65023361  0.90564524    -0.12330
C563        C  0.42729049  0.62729778  0.93733492     0.01780
C564        C  0.42257240  0.57788842  0.94215505    -0.00540
C565        C  0.39435268  0.55410040  0.91438543    -0.12270
C566        C  0.37208009  0.57669713  0.88280309     0.01670
H567        H  0.40850355  0.68774084  0.90211837     0.14650
H568        H  0.39121149  0.51690295  0.91610510     0.14650
C569        C  0.34733896  0.54790018  0.85420228     0.36300
C570        C  0.45717366  0.65605608  0.96194279     0.36210
N571        N  0.32786816  0.52457438  0.83130641    -0.44040
N572        N  0.48162060  0.68063910  0.97993966    -0.44040
C573        C  0.07467714  0.93096012  0.93435654    -0.00450
C574        C  0.09190745  0.88575312  0.94363144    -0.12330
C575        C  0.11387299  0.85756620  0.91475703     0.01780
C576        C  0.12236216  0.87562044  0.87645132    -0.00540
C577        C  0.10583055  0.92006715  0.86680667    -0.12270
C578        C  0.08045182  0.94687887  0.89426271     0.01670
H579        H  0.08723226  0.87168016  0.97338655     0.14650
H580        H  0.11099173  0.93311456  0.83667603     0.14650
C581        C  0.05874600  0.98827298  0.87799892     0.36300
C582        C  0.12723580  0.81034723  0.92503094     0.36210
N583        N  0.04100162  0.01999816  0.86268618    -0.44040
N584        N  0.13734288  0.77228046  0.93314276    -0.44040
C585        C  0.37291766  0.87881511  0.62378238    -0.00450
C586        C  0.40477939  0.85468501  0.59915572    -0.12330
C587        C  0.42874953  0.87735462  0.56797806     0.01780
C588        C  0.42122906  0.92595359  0.56105460    -0.00540
C589        C  0.38816687  0.94932171  0.58528812    -0.12270
C590        C  0.36473570  0.92681050  0.61652035     0.01670
H591        H  0.41115317  0.81776710  0.60434817     0.14650
H592        H  0.38094655  0.98596472  0.58021426     0.14650
C593        C  0.33463079  0.95495238  0.64178078     0.36300
C594        C  0.46116067  0.84923439  0.54485808     0.36210
N595        N  0.31092515  0.97775411  0.66216046    -0.44040
N596        N  0.48703890  0.82611451  0.52670640    -0.44040
C597        C  0.12191879  0.62771736  0.88003332    -0.00450
C598        C  0.14971799  0.60364294  0.90759206    -0.12330
C599        C  0.12936436  0.57869411  0.93909397     0.01780
C600        C  0.07890118  0.57627871  0.94299881    -0.00540
C601        C  0.05160203  0.60199863  0.91584584    -0.12270
C602        C  0.07227002  0.62786703  0.88492274     0.01670
H603        H  0.18797242  0.60425068  0.90442927     0.14650
H604        H  0.01363760  0.59957041  0.91730326     0.14650
C605        C  0.04123641  0.65145148  0.85729479     0.36300
C606        C  0.16254016  0.55639399  0.96575176     0.36210
N607        N  0.01610003  0.67024953  0.83529737    -0.44040
N608        N  0.18975043  0.53907820  0.98687762    -0.44040
C609        C  0.07564354  0.92243836  0.56002826    -0.00450
C610        C  0.04876641  0.90719677  0.59300142    -0.12330
C611        C  0.06921333  0.88229381  0.62466824     0.01780
C612        C  0.11818899  0.87283570  0.62450610    -0.00540
C613        C  0.14524027  0.88683585  0.59165793    -0.12270
C614        C  0.12477486  0.91034383  0.55928698     0.01670
H615        H  0.01175891  0.91643254  0.59492803     0.14650
H616        H  0.18278859  0.87880800  0.59110080     0.14650
C617        C  0.15594919  0.92003899  0.52612058     0.36300
C618        C  0.03960656  0.86939304  0.65806120     0.36210
N619        N  0.18143550  0.92721507  0.49973653    -0.44040
N620        N  0.01579601  0.85915169  0.68480627    -0.44040
C621        C  0.37484182  0.62324755  0.62637697    -0.00450
C622        C  0.40739379  0.58928877  0.63800201    -0.12330
C623        C  0.43261091  0.56321170  0.60986223     0.01780
C624        C  0.42440403  0.57021880  0.56827331    -0.00540
C625        C  0.39157032  0.60512110  0.55709311    -0.12270
C626        C  0.36719660  0.63166073  0.58565045     0.01670
H627        H  0.41348767  0.58342309  0.66957002     0.14650
H628        H  0.38512422  0.61196234  0.52577716     0.14650
C629        C  0.33474887  0.66745861  0.57252803     0.36300
C630        C  0.46682831  0.53075699  0.62582586     0.36210
N631        N  0.30888657  0.69626995  0.56193073    -0.44040
N632        N  0.49386735  0.50501450  0.63961918    -0.44200
C633        C  0.07597949  0.56828943  0.56768596    -0.00450
C634        C  0.11674390  0.54842187  0.58481682    -0.12330
C635        C  0.14209023  0.57154918  0.61484174     0.01780
C636        C  0.12606066  0.61532201  0.62930832    -0.00540
C637        C  0.08523059  0.63468991  0.61290125    -0.12270
C638        C  0.06018718  0.61218945  0.58282051     0.01670
H639        H  0.12929684  0.51477801  0.57434170     0.14650
H640        H  0.07228385  0.66805115  0.62384713     0.14650
C641        C  0.01820094  0.63637511  0.57013218     0.36300
C642        C  0.18431476  0.54929342  0.62977611     0.36210
N643        N  0.98531045  0.65859428  0.56228366    -0.44040
N644        N  0.21824207  0.53130856  0.64148880    -0.44040
N645        N  0.69129779  0.33601360  0.20434591    -0.06420
N646        N  0.68285040  0.36591784  0.17513743    -0.58540
N647        N  0.66009751  0.30398335  0.29718244    -0.06100
N648        N  0.63073237  0.31050781  0.32741944    -0.60660
N649        N  0.69268313  0.33687624  0.29647227    -0.05690
N650        N  0.68586178  0.36679821  0.32582232    -0.58510
N651        N  0.65851822  0.30329636  0.20516074    -0.05370
N652        N  0.62673065  0.31064898  0.17697372    -0.61020
C653        C  0.64243281  0.34974965  0.15840188     0.95760
C654        C  0.64764017  0.34952743  0.34519673     0.95540
N655        N  0.69445466  0.16363423  0.29948892    -0.06600
N656        N  0.68674748  0.13451743  0.32937812    -0.59110
N657        N  0.66189933  0.19191512  0.20673970    -0.04720
N658        N  0.63184798  0.18170806  0.17799016    -0.60370
N659        N  0.69546893  0.16012794  0.20823672    -0.06630
N660        N  0.68915807  0.12791221  0.18069196    -0.59380
N661        N  0.66072446  0.19525414  0.29797730    -0.04360
N662        N  0.62937818  0.18839230  0.32657681    -0.60450
Mn663      Mn  0.65877951  0.24865756  0.25149054     1.18440
C664        C  0.64598252  0.15041931  0.34594987     0.97840
C665        C  0.64940595  0.14169985  0.16188366     0.98510
N666        N  0.80483965  0.33894313  0.29537551    -0.06650
N667        N  0.81308744  0.37008247  0.32358501    -0.62960
N668        N  0.83655899  0.30562452  0.20360247    -0.05450
N669        N  0.86689619  0.31427281  0.17444071    -0.63630
N670        N  0.80279718  0.33732515  0.20391963    -0.06160
N671        N  0.80940753  0.36803048  0.17515730    -0.63220
N672        N  0.83860934  0.30723166  0.29493475    -0.05050
N673        N  0.87052202  0.31621820  0.32258744    -0.63910
Mn674      Mn  0.74779765  0.33875974  0.25007550     1.10660
C675        C  0.85421698  0.35553191  0.34027679     0.99060
C676        C  0.84947674  0.35342208  0.15696919     0.99140
N677        N  0.80537530  0.16231333  0.20678935    -0.06170
N678        N  0.81177622  0.13205855  0.17755343    -0.61540
N679        N  0.83929123  0.19710886  0.29773350    -0.05480
N680        N  0.86993725  0.18960450  0.32686470    -0.58270
N681        N  0.80589683  0.16506766  0.29846148    -0.06790
N682        N  0.81300898  0.13521949  0.32768689    -0.61110
N683        N  0.83776530  0.19534536  0.20536294    -0.05780
N684        N  0.86694148  0.18828491  0.17513426    -0.58290
Mn685      Mn  0.75044286  0.16145362  0.25347437     1.20190
Mn686      Mn  0.83972783  0.25123163  0.25033515     1.10090
Cl687      Cl  0.74921558  0.25013826  0.25128272    -0.86260
C688        C  0.84980836  0.14912274  0.15780340     0.96070
C689        C  0.85300664  0.15066132  0.34519542     0.95870
C690        C  0.94634762  0.46056843  0.46893998    -0.02790
C691        C  0.94834852  0.04735775  0.47321416    -0.02790
C692        C  0.54961529  0.45919830  0.46739000    -0.02790
C693        C  0.55199367  0.04538887  0.47295471    -0.02790
C694        C  0.52342923  0.00410011  0.45509862     0.00270
C695        C  0.97439171  0.00464383  0.45521947     0.00270
C696        C  0.94784021  0.45561937  0.03022725    -0.02790
C697        C  0.55070525  0.45425431  0.02936645    -0.02790
C698        C  0.52175734  0.43020839  0.99724313     0.00270
C699        C  0.97463122  0.43088429  0.99756575     0.00270
C700        C  0.55082122  0.04122711  0.03455317    -0.02790
C701        C  0.97556376  0.99724569  0.04744156     0.00270
C702        C  0.52430055  0.99673826  0.04755830     0.00270
C703        C  0.58284704  0.02231992  0.00285836     0.00270
C704        C  0.58231692  0.47666847  0.99926607     0.00270
C705        C  0.97699836  0.07115091  0.00519017     0.00270
C706        C  0.52407707  0.07064670  0.00469386     0.00270
C707        C  0.94918291  0.04232876  0.03506881    -0.02790
C708        C  0.91538562  0.47917122  0.00143149     0.00270
C709        C  0.91590670  0.02509313  0.00350951     0.00270
C710        C  0.92028369  0.43240394  0.43653528    -0.00450
C711        C  0.94810903  0.40641379  0.40969035    -0.12330
C712        C  0.92777646  0.38002104  0.37890058     0.01780
C713        C  0.87817683  0.38024215  0.37348281    -0.00540
C714        C  0.85009391  0.40563629  0.40010120    -0.12270
C715        C  0.86993171  0.43072385  0.43167362     0.01670
H716        H  0.98613633  0.40644317  0.41288409     0.14650
H717        H  0.81193890  0.40570939  0.39633090     0.14650
C718        C  0.83658359  0.45579829  0.45647734     0.36300
C719        C  0.95898396  0.35416104  0.35284651     0.36210
N720        N  0.80935972  0.47598002  0.47575582    -0.44040
N721        N  0.98421712  0.33334380  0.33220704    -0.44040
C722        C  0.87664581  0.12550662  0.37827767    -0.00450
C723        C  0.90444051  0.15022519  0.40562905    -0.12330
C724        C  0.92732034  0.12729273  0.43732123     0.01780
C725        C  0.92256437  0.07789060  0.44216715    -0.00540
C726        C  0.89428902  0.05410842  0.41443473    -0.12270
C727        C  0.87201681  0.07670166  0.38284961     0.01670
H728        H  0.90856944  0.18772586  0.40207989     0.14650
H729        H  0.89109472  0.01691610  0.41619185     0.14650
C730        C  0.84721477  0.04790422  0.35428685     0.36300
C731        C  0.95723668  0.15604386  0.46190735     0.36210
N732        N  0.82769466  0.02457654  0.33142215    -0.44040
N733        N  0.98171007  0.18061690  0.47988888    -0.44040
C734        C  0.57467075  0.43095911  0.43435138    -0.00450
C735        C  0.59191346  0.38575804  0.44363024    -0.12330
C736        C  0.61388357  0.35757236  0.41475759     0.01780
C737        C  0.62236475  0.37562305  0.37644947    -0.00540
C738        C  0.60582034  0.42006388  0.36680064    -0.12270
C739        C  0.58043665  0.44687298  0.39425531     0.01670
H740        H  0.58724417  0.37168852  0.47338718     0.14650
H741        H  0.61097351  0.43310701  0.33666772     0.14650
C742        C  0.55870870  0.48825311  0.37798676     0.36300
C743        C  0.62725800  0.31035779  0.42503544     0.36210
N744        N  0.54094501  0.51996497  0.36266993    -0.44040
N745        N  0.63737413  0.27229432  0.43315047    -0.44040
C746        C  0.87291528  0.37881416  0.12377846    -0.00450
C747        C  0.90478122  0.35468558  0.09915478    -0.12330
C748        C  0.92875140  0.37735547  0.06797758     0.01780
C749        C  0.92122622  0.42595326  0.06105143    -0.00540
C750        C  0.88815974  0.44931977  0.08528177    -0.12270
C751        C  0.86472845  0.42680817  0.11651360     0.01670
H752        H  0.91115863  0.31776871  0.10434947     0.14650
H753        H  0.88093632  0.48596183  0.08020586     0.14650
C754        C  0.83461832  0.45494852  0.14177080     0.36300
C755        C  0.96116747  0.34923669  0.04486114     0.36210
N756        N  0.81090844  0.47774881  0.16214812    -0.44040
N757        N  0.98704959  0.32611788  0.02671241    -0.44040
C758        C  0.62192264  0.12771225  0.38002883    -0.00450
C759        C  0.64972132  0.10365406  0.40759805    -0.12330
C760        C  0.62936585  0.07870572  0.43909959     0.01780
C761        C  0.57890191  0.07627320  0.44299244    -0.00540
C762        C  0.55160316  0.10197128  0.41582463    -0.12270
C763        C  0.57227228  0.12784199  0.38490383     0.01670
H764        H  0.68797659  0.10427542  0.40444434     0.14650
H765        H  0.51363953  0.09951983  0.41726668     0.14650
C766        C  0.54124012  0.15140744  0.35726297     0.36300
C767        C  0.66254077  0.05642342  0.46576905     0.36210
N768        N  0.51610520  0.17019084  0.33525533    -0.44040
N769        N  0.68974979  0.03912041  0.48690367    -0.44040
C770        C  0.57563990  0.42244101  0.06003211    -0.00450
C771        C  0.54876373  0.40720303  0.09300715    -0.12330
C772        C  0.56921091  0.38229942  0.12467359     0.01780
C773        C  0.61818568  0.37283693  0.12450890    -0.00540
C774        C  0.64523567  0.38683340  0.09165891    -0.12270
C775        C  0.62476993  0.41034178  0.05928844     0.01670
H776        H  0.51175690  0.41644147  0.09493513     0.14650
H777        H  0.68278318  0.37880202  0.09109988     0.14650
C778        C  0.65594223  0.42003125  0.02611952     0.36300
C779        C  0.53960579  0.36940223  0.15806859     0.36210
N780        N  0.68142706  0.42720260  0.99973354    -0.44040
N781        N  0.51579664  0.35916376  0.18481535    -0.44040
C782        C  0.87483383  0.12324916  0.12636978    -0.00450
C783        C  0.90738522  0.08929019  0.13799487    -0.12330
C784        C  0.93259893  0.06320930  0.10985559     0.01780
C785        C  0.92439099  0.07021368  0.06826607    -0.00540
C786        C  0.89155348  0.10511249  0.05708557    -0.12270
C787        C  0.86718240  0.13165553  0.08564286     0.01670
H788        H  0.91348165  0.08342743  0.16956294     0.14650
H789        H  0.88510398  0.11194989  0.02576961     0.14650
C790        C  0.83473231  0.16745095  0.07251991     0.36300
C791        C  0.96681541  0.03075497  0.12582120     0.36210
N792        N  0.80886812  0.19626031  0.06192198    -0.44040
N793        N  0.99385333  0.00501296  0.13961673    -0.44200
C794        C  0.57597705  0.06828814  0.06769468    -0.00450
C795        C  0.61674955  0.04842587  0.08481702    -0.12330
C796        C  0.64209870  0.07155443  0.11483954     0.01780
C797        C  0.62606399  0.11532236  0.12931241    -0.00540
C798        C  0.58522558  0.13468350  0.11291504    -0.12270
C799        C  0.56017905  0.11218155  0.08283739     0.01670
H800        H  0.62930711  0.01478591  0.07433670     0.14650
H801        H  0.57227384  0.16804017  0.12386698     0.14650
C802        C  0.51818222  0.13635802  0.07016385     0.36300
C803        C  0.68433217  0.04930617  0.12976392     0.36210
N804        N  0.48528381  0.15857448  0.06233430    -0.44040
N805        N  0.71826678  0.03132773  0.14146869    -0.44040
N806        N  0.69128392  0.33601702  0.70434388    -0.06420
N807        N  0.68283460  0.36591872  0.67513422    -0.58540
N808        N  0.66009063  0.30398871  0.79718145    -0.06100
N809        N  0.63072791  0.31051056  0.82742054    -0.60660
N810        N  0.69267377  0.33688407  0.79646950    -0.05690
N811        N  0.68585286  0.36680506  0.82582023    -0.58510
N812        N  0.65850724  0.30329683  0.70515963    -0.05370
N813        N  0.62671939  0.31064536  0.67697196    -0.61020
C814        C  0.64241880  0.34974644  0.65839896     0.95760
C815        C  0.64763436  0.34953128  0.84519696     0.95540
N816        N  0.69445676  0.16364357  0.79949479    -0.06600
N817        N  0.68675167  0.13452915  0.82938619    -0.59110
N818        N  0.66189506  0.19191337  0.70674327    -0.04720
N819        N  0.63184354  0.18170350  0.67799426    -0.60370
N820        N  0.69546660  0.16012787  0.70824111    -0.06630
N821        N  0.68915634  0.12791062  0.68069692    -0.59380
N822        N  0.66072442  0.19526106  0.79798173    -0.04360
N823        N  0.62937998  0.18840061  0.82658295    -0.60450
Mn824      Mn  0.65877379  0.24866025  0.75149164     1.18440
C825        C  0.64598630  0.15043030  0.84595863     0.97840
C826        C  0.64940245  0.14169525  0.66188854     0.98510
N827        N  0.80483105  0.33896489  0.79536914    -0.06650
N828        N  0.81307886  0.37010223  0.82358077    -0.62960
N829        N  0.83654401  0.30564046  0.70359344    -0.05450
N830        N  0.86687968  0.31428707  0.67443059    -0.63630
N831        N  0.80278195  0.33734054  0.70391116    -0.06160
N832        N  0.80939043  0.36804440  0.67514720    -0.63220
N833        N  0.83860263  0.30725592  0.79492505    -0.05050
N834        N  0.87051622  0.31624108  0.82257710    -0.63910
Mn835      Mn  0.74778545  0.33877226  0.75007081     1.10660
C836        C  0.85421076  0.35555216  0.84026986     0.99060
C837        C  0.84945899  0.35343480  0.65695819     0.99140
N838        N  0.80537836  0.16232439  0.70679395    -0.06170
N839        N  0.81179124  0.13206032  0.67756684    -0.61540
N840        N  0.83929149  0.19714221  0.79772906    -0.05480
N841        N  0.86994945  0.18964625  0.82685208    -0.58270
N842        N  0.80590410  0.16509354  0.79846385    -0.06790
N843        N  0.81303461  0.13524524  0.82768621    -0.61110
N844        N  0.83776228  0.19536218  0.70536324    -0.05780
N845        N  0.86694557  0.18829712  0.67514047    -0.58290
Mn846      Mn  0.75044508  0.16146432  0.75347895     1.20190
Mn847      Mn  0.83971959  0.25125463  0.75032842     1.10090
Cl848      Cl  0.74920893  0.25014982  0.75128053    -0.86260
C849        C  0.84982426  0.14912510  0.65781826     0.96070
C850        C  0.85303394  0.15070008  0.84518470     0.95870
C851        C  0.94634821  0.46056381  0.96894666    -0.02790
C852        C  0.94836224  0.04736031  0.97319215    -0.02790
C853        C  0.54961476  0.45919898  0.96739524    -0.02790
C854        C  0.55200097  0.04539530  0.97296256    -0.02790
C855        C  0.52344548  0.00410322  0.95510095     0.00270
C856        C  0.97441015  0.00464300  0.95521021     0.00270
C857        C  0.94783564  0.45562376  0.53022014    -0.02790
C858        C  0.55070253  0.45425337  0.52936092    -0.02790
C859        C  0.52175481  0.43020901  0.49723677     0.00270
C860        C  0.97462748  0.43088748  0.49755993     0.00270
C861        C  0.55082941  0.04122370  0.53454647    -0.02790
C862        C  0.97557500  0.99724112  0.54745330     0.00270
C863        C  0.52431254  0.99673398  0.54755740     0.00270
C864        C  0.58284644  0.02231430  0.50284694     0.00270
C865        C  0.58231695  0.47666605  0.49926181     0.00270
C866        C  0.97699881  0.07114737  0.50520149     0.00270
C867        C  0.52407844  0.07064055  0.50469023     0.00270
C868        C  0.94919351  0.04232609  0.53508738    -0.02790
C869        C  0.91538375  0.47917724  0.50142326     0.00270
C870        C  0.91590669  0.02508986  0.50353846     0.00270
C871        C  0.92028212  0.43240021  0.93654177    -0.00450
C872        C  0.94810617  0.40641887  0.90968978    -0.12330
C873        C  0.92777199  0.38003477  0.87889511     0.01780
C874        C  0.87817175  0.38025622  0.87347924    -0.00540
C875        C  0.85008997  0.40563991  0.90010554    -0.12270
C876        C  0.86992941  0.43071755  0.93168330     0.01670
H877        H  0.98613391  0.40644984  0.91288087     0.14650
H878        H  0.81193464  0.40571205  0.89633751     0.14650
C879        C  0.83658177  0.45578131  0.95649529     0.36300
C880        C  0.95897860  0.35418330  0.85283409     0.36210
N881        N  0.80935813  0.47595479  0.97578028    -0.44040
N882        N  0.98421097  0.33337263  0.83218912    -0.44040
C883        C  0.87670428  0.12553674  0.87824087    -0.00450
C884        C  0.90438400  0.15026386  0.90566746    -0.12330
C885        C  0.92726376  0.12731664  0.93735262     0.01780
C886        C  0.92260615  0.07789449  0.94212482    -0.00540
C887        C  0.89448686  0.05410114  0.91428516    -0.12270
C888        C  0.87222026  0.07670954  0.88270688     0.01670
H889        H  0.90842112  0.18778262  0.90218326     0.14650
H890        H  0.89143575  0.01689415  0.91593643     0.14650
C891        C  0.84758916  0.04791841  0.85403412     0.36300
C892        C  0.95709094  0.15608233  0.96200096     0.36210
N893        N  0.82820750  0.02459990  0.83107935    -0.44040
N894        N  0.98149392  0.18067891  0.98002621    -0.44040
C895        C  0.57466977  0.43096057  0.93435584    -0.00450
C896        C  0.59190608  0.38575604  0.94363153    -0.12330
C897        C  0.61387295  0.35757049  0.91475696     0.01780
C898        C  0.62236008  0.37562535  0.87645119    -0.00540
C899        C  0.60582314  0.42006985  0.86680593    -0.12270
C900        C  0.58044036  0.44687832  0.89426142     0.01670
H901        H  0.58723373  0.37168349  0.97338710     0.14650
H902        H  0.61098032  0.43311627  0.83667450     0.14650
C903        C  0.55871683  0.48826123  0.87799418     0.36300
C904        C  0.62723715  0.31035167  0.92503019     0.36210
N905        N  0.54095663  0.51997445  0.86267658    -0.44040
N906        N  0.63734453  0.27228474  0.93314124    -0.44040
C907        C  0.87289832  0.37882461  0.62376709    -0.00450
C908        C  0.90476253  0.35469309  0.59914384    -0.12330
C909        C  0.92873697  0.37736122  0.56796822     0.01780
C910        C  0.92121723  0.42595982  0.56104288    -0.00540
C911        C  0.88815135  0.44932901  0.58527211    -0.12270
C912        C  0.86471685  0.42681937  0.61650315     0.01670
H913        H  0.91113591  0.31777545  0.60433815     0.14650
H914        H  0.88093118  0.48597156  0.58019623     0.14650
C915        C  0.83461084  0.45496227  0.64176170     0.36300
C916        C  0.96115155  0.34923987  0.54485257     0.36210
N917        N  0.81090483  0.47776437  0.66214071    -0.44040
N918        N  0.98703243  0.32611912  0.52670439    -0.44040
C919        C  0.62192931  0.12772557  0.88004183    -0.00450
C920        C  0.64972718  0.10362755  0.90758686    -0.12330
C921        C  0.62937351  0.07867608  0.93908716     0.01780
C922        C  0.57891103  0.07628466  0.94300599    -0.00540
C923        C  0.55161349  0.10203360  0.91587149    -0.12270
C924        C  0.57228215  0.12789963  0.88494699     0.01670
H925        H  0.68798071  0.10421741  0.90441401     0.14650
H926        H  0.51364792  0.09963660  0.91734748     0.14650
C927        C  0.54124814  0.15150818  0.85733433     0.36300
C928        C  0.66254821  0.05634904  0.96572943     0.36210
N929        N  0.51611103  0.17032442  0.83534877    -0.44040
N930        N  0.68975846  0.03901361  0.98684360    -0.44040
C931        C  0.57563359  0.42243811  0.56002691    -0.00450
C932        C  0.54875414  0.40719870  0.59299967    -0.12330
C933        C  0.56919826  0.38229311  0.62466644     0.01780
C934        C  0.61817282  0.37283008  0.62450403    -0.00540
C935        C  0.64522559  0.38682695  0.59165592    -0.12270
C936        C  0.62476326  0.41033747  0.55928538     0.01670
H937        H  0.51174739  0.41643793  0.59492583     0.14650
H938        H  0.68277310  0.37879529  0.59109894     0.14650
C939        C  0.65593908  0.42002820  0.52611908     0.36300
C940        C  0.53959068  0.36939514  0.65805967     0.36210
N941        N  0.68142697  0.42720013  0.49973531    -0.44040
N942        N  0.51577965  0.35915601  0.68480506    -0.44040
C943        C  0.87485497  0.12325255  0.62638754    -0.00450
C944        C  0.90740244  0.08928956  0.63801358    -0.12330
C945        C  0.93261820  0.06320996  0.60987422     0.01780
C946        C  0.92441304  0.07021784  0.56828545    -0.00540
C947        C  0.89158500  0.10512494  0.55710443    -0.12270
C948        C  0.86721379  0.13166769  0.58566085     0.01670
H949        H  0.91349377  0.08342248  0.66958172     0.14650
H950        H  0.88514116  0.11196730  0.52578830     0.14650
C951        C  0.83477156  0.16746989  0.57253724     0.36300
C952        C  0.96683160  0.03075084  0.62583735     0.36210
N953        N  0.80891374  0.19628467  0.56193901    -0.44040
N954        N  0.99386780  0.00500462  0.63962959    -0.44200
C955        C  0.57598702  0.06829020  0.56768483    -0.00450
C956        C  0.61674532  0.04841808  0.58482228    -0.12330
C957        C  0.64208929  0.07154334  0.61485025     0.01780
C958        C  0.62606378  0.11531949  0.62931297    -0.00540
C959        C  0.58524030  0.13469305  0.61289803    -0.12270
C960        C  0.56019954  0.11219484  0.58281396     0.01670
H961        H  0.62929474  0.01477158  0.57435046     0.14650
H962        H  0.57229731  0.16805761  0.62383955     0.14650
C963        C  0.51822200  0.13638814  0.57011391     0.36300
C964        C  0.68430641  0.04928124  0.62979284     0.36210
N965        N  0.48533804  0.15860972  0.56225033    -0.44040
N966        N  0.71822765  0.03129092  0.64151202    -0.44040
N967        N  0.69129038  0.83601643  0.20434478    -0.06420
N968        N  0.68283978  0.86591986  0.17513671    -0.58540
N969        N  0.66009763  0.80398783  0.29718212    -0.06100
N970        N  0.63073494  0.81051066  0.32742099    -0.60660
N971        N  0.69268135  0.83688263  0.29646990    -0.05690
N972        N  0.68586105  0.86680411  0.32582037    -0.58510
N973        N  0.65851244  0.80329763  0.20516130    -0.05370
N974        N  0.62672261  0.81064844  0.17697578    -0.61020
C975        C  0.64242196  0.84974972  0.15840339     0.95760
C976        C  0.64764228  0.84953113  0.34519715     0.95540
N977        N  0.69445863  0.66364068  0.29949090    -0.06600
N978        N  0.68675239  0.63452329  0.32937992    -0.59110
N979        N  0.66189791  0.69191606  0.20674141    -0.04720
N980        N  0.63184518  0.68170687  0.17799320    -0.60370
N981        N  0.69546929  0.66013050  0.20823773    -0.06630
N982        N  0.68915786  0.62791366  0.18069357    -0.59380
N983        N  0.66072721  0.69525912  0.29797945    -0.04360
N984        N  0.62938136  0.68839606  0.32657906    -0.60450
Mn985      Mn  0.65877859  0.74866051  0.25149157     1.18440
C986        C  0.64598680  0.65042352  0.34595207     0.97840
C987        C  0.64940351  0.64169887  0.16188652     0.98510
N988        N  0.80483766  0.83896287  0.29536850    -0.06650
N989        N  0.81308631  0.87010636  0.32357489    -0.62960
N990        N  0.83655269  0.80563690  0.20359508    -0.05450
N991        N  0.86688782  0.81428364  0.17443157    -0.63630
N992        N  0.80278950  0.83733602  0.20391179    -0.06160
N993        N  0.80939684  0.86803900  0.17514704    -0.63220
N994        N  0.83861047  0.80725471  0.29492650    -0.05050
N995        N  0.87052742  0.81624824  0.32257421    -0.63910
Mn996      Mn  0.74779256  0.83876947  0.25007090     1.10660
C997        C  0.85422085  0.85556241  0.34026190     0.99060
C998        C  0.84946571  0.85343045  0.15695812     0.99140
N999        N  0.80537932  0.66232389  0.20679152    -0.06170
N1000       N  0.81178729  0.63206359  0.17756092    -0.61540
N1001       N  0.83929313  0.69713107  0.29773146    -0.05480
N1002       N  0.86994392  0.68962910  0.32685933    -0.58270
N1003       N  0.80590183  0.66508636  0.29846147    -0.06790
N1004       N  0.81302118  0.63523766  0.32768516    -0.61110
N1005       N  0.83776677  0.69535841  0.20536359    -0.05780
N1006       N  0.86694784  0.68829453  0.17513901    -0.58290
Mn1007     Mn  0.75044620  0.66146310  0.25347547     1.20190
Mn1008     Mn  0.83972659  0.75124934  0.25033093     1.10090
Cl1009     Cl  0.74921459  0.75014791  0.25128089    -0.86260
C1010       C  0.84982102  0.64912714  0.15781282     0.96070
C1011       C  0.85301929  0.65068404  0.34519003     0.95870
C1012       C  0.94634478  0.96056490  0.46894933    -0.02790
C1013       C  0.94835424  0.54736184  0.47320173    -0.02790
C1014       C  0.54961425  0.95919757  0.46739052    -0.02790
C1015       C  0.55199595  0.54539055  0.47295452    -0.02790
C1016       C  0.52343453  0.50410130  0.45509612     0.00270
C1017       C  0.97439830  0.50464590  0.45521179     0.00270
C1018       C  0.94783471  0.95562311  0.03021654    -0.02790
C1019       C  0.55070433  0.95425671  0.02936739    -0.02790
C1020       C  0.52176109  0.93021136  0.99724201     0.00270
C1021       C  0.97463194  0.93088735  0.99756055     0.00270
C1022       C  0.55082186  0.54122562  0.03455125    -0.02790
C1023       C  0.97557148  0.49724275  0.04745084     0.00270
C1024       C  0.52430475  0.49673577  0.04756030     0.00270
C1025       C  0.58284221  0.52231769  0.00285323     0.00270
C1026       C  0.58232172  0.97667035  0.99927050     0.00270
C1027       C  0.97699675  0.57114829  0.00519849     0.00270
C1028       C  0.52407222  0.57064286  0.00469396     0.00270
C1029       C  0.94918920  0.54232639  0.03508237    -0.02790
C1030       C  0.91538568  0.97917382  0.00141484     0.00270
C1031       C  0.91590591  0.52508915  0.00353065     0.00270
C1032       C  0.92028157  0.93240313  0.43654156    -0.00450
C1033       C  0.94811289  0.90647860  0.40965486    -0.12330
C1034       C  0.92778407  0.88010448  0.37885168     0.01780
C1035       C  0.87817947  0.88027079  0.37346879    -0.00540
C1036       C  0.85008996  0.90559831  0.40012803    -0.12270
C1037       C  0.86992684  0.93066994  0.43171081     0.01670
H1038       H  0.98614266  0.90655099  0.41282206     0.14650
H1039       H  0.81193122  0.90562738  0.39638329     0.14650
C1040       C  0.83657025  0.95566338  0.45656549     0.36300
C1041       C  0.95899811  0.85432897  0.35274217     0.36210
N1042       N  0.80933870  0.97577887  0.47588665    -0.44040
N1043       N  0.98423638  0.83358187  0.33205577    -0.44040
C1044       C  0.87667001  0.62552464  0.37826173    -0.00450
C1045       C  0.90442539  0.65024476  0.40563963    -0.12330
C1046       C  0.92730483  0.62730562  0.43732863     0.01780
C1047       C  0.92258175  0.57789641  0.44214775    -0.00540
C1048       C  0.89436074  0.55411153  0.41437726    -0.12270
C1049       C  0.87209073  0.57671164  0.38279533     0.01670
H1050       H  0.90852305  0.68775181  0.40211402     0.14650
H1051       H  0.89121601  0.51691380  0.41609639     0.14650
C1052       C  0.84734716  0.54791766  0.35419386     0.36300
C1053       C  0.95719145  0.65606039  0.46193655     0.36210
N1054       N  0.82787427  0.52459412  0.33129759    -0.44040
N1055       N  0.98164158  0.68064047  0.47993330    -0.44040
C1056       C  0.57467078  0.93095943  0.43435194    -0.00450
C1057       C  0.59191659  0.88575957  0.44363115    -0.12330
C1058       C  0.61388706  0.85757458  0.41475831     0.01780
C1059       C  0.62236769  0.87562598  0.37645041    -0.00540
C1060       C  0.60582143  0.92006604  0.36680156    -0.12270
C1061       C  0.58043530  0.94687319  0.39425581     0.01670
H1062       H  0.58724878  0.87169010  0.47338827     0.14650
H1063       H  0.61097271  0.93310879  0.33666827     0.14650
C1064       C  0.55869623  0.98824608  0.37798486     0.36300
C1065       C  0.62726089  0.81035954  0.42503525     0.36210
N1066       N  0.54092253  0.01994971  0.36266403    -0.44040
N1067       N  0.63737597  0.77229551  0.43314931    -0.44040
C1068       C  0.87290282  0.87882060  0.12376550    -0.00450
C1069       C  0.90477025  0.85469125  0.09914373    -0.12330
C1070       C  0.92874208  0.87736000  0.06796684     0.01780
C1071       C  0.92121657  0.92595743  0.06103860    -0.00540
C1072       C  0.88814683  0.94932406  0.08526569    -0.12270
C1073       C  0.86471488  0.92681378  0.11649798     0.01670
H1074       H  0.91114828  0.81777481  0.10434020     0.14650
H1075       H  0.88092226  0.98596539  0.08018753     0.14650
C1076       C  0.83460456  0.95495491  0.14175420     0.36300
C1077       C  0.96115966  0.84924024  0.04485271     0.36210
N1078       N  0.81089502  0.97775534  0.16213164    -0.44040
N1079       N  0.98704273  0.82612069  0.02670562    -0.44040
C1080       C  0.62192743  0.62771522  0.38003134    -0.00450
C1081       C  0.64972504  0.60363879  0.40759000    -0.12330
C1082       C  0.62936947  0.57868870  0.43909041     0.01780
C1083       C  0.57890608  0.57627528  0.44299426    -0.00540
C1084       C  0.55160862  0.60199473  0.41583995    -0.12270
C1085       C  0.57227830  0.62786345  0.38491808     0.01670
H1086       H  0.68797962  0.60424619  0.40442850     0.14650
H1087       H  0.51364412  0.59956680  0.41729590     0.14650
C1088       C  0.54124596  0.65144731  0.35728878     0.36300
C1089       C  0.66254344  0.55638487  0.46574753     0.36210
N1090       N  0.51611055  0.67024468  0.33529017    -0.44040
N1091       N  0.68975238  0.53906595  0.48687275    -0.44040
C1092       C  0.57563451  0.92244184  0.06003379    -0.00450
C1093       C  0.54875602  0.90720574  0.09300819    -0.12330
C1094       C  0.56920085  0.88230019  0.12467466     0.01780
C1095       C  0.61817490  0.87283443  0.12451000    -0.00540
C1096       C  0.64522618  0.88682726  0.09166004    -0.12270
C1097       C  0.62476300  0.91033665  0.05928961     0.01670
H1098       H  0.51174954  0.91644640  0.09493522     0.14650
H1099       H  0.68277291  0.87879214  0.09110106     0.14650
C1100       C  0.65593611  0.92001862  0.02611968     0.36300
C1101       C  0.53959473  0.86940408  0.15806932     0.36210
N1102       N  0.68142215  0.92718281  0.99973313    -0.44040
N1103       N  0.51578488  0.85916620  0.18481581    -0.44040
C1104       C  0.87484942  0.62325363  0.12638151    -0.00450
C1105       C  0.90739966  0.58929359  0.13800768    -0.12330
C1106       C  0.93261332  0.56321191  0.10986867     0.01780
C1107       C  0.92440503  0.57021616  0.06827973    -0.00540
C1108       C  0.89157226  0.60511884  0.05709842    -0.12270
C1109       C  0.86720161  0.63166250  0.08565474     0.01670
H1110       H  0.91349453  0.58343017  0.16957583     0.14650
H1111       H  0.88512464  0.61195743  0.02578229     0.14650
C1112       C  0.83475389  0.66745971  0.07253093     0.36300
C1113       C  0.96682878  0.53075558  0.12583278     0.36210
N1114       N  0.80889150  0.69627034  0.06193240    -0.44040
N1115       N  0.99386643  0.50501182  0.13962631    -0.44200
C1116       C  0.57597948  0.56829012  0.06769054    -0.00450
C1117       C  0.61674426  0.54842237  0.08482103    -0.12330
C1118       C  0.64209109  0.57154914  0.11484631     0.01780
C1119       C  0.62606217  0.61532197  0.12931342    -0.00540
C1120       C  0.58523176  0.63469000  0.11290657    -0.12270
C1121       C  0.56018773  0.61218990  0.08282571     0.01670
H1122       H  0.62929694  0.51477861  0.07434554     0.14650
H1123       H  0.57228522  0.66805120  0.12385265     0.14650
C1124       C  0.51820120  0.63637529  0.07013777     0.36300
C1125       C  0.68431516  0.54929264  0.12978089     0.36210
N1126       N  0.48531032  0.65859387  0.06228928    -0.44040
N1127       N  0.71824201  0.53130704  0.14149375    -0.44040
N1128       N  0.69129573  0.83601290  0.70434626    -0.06420
N1129       N  0.68285101  0.86591620  0.67513645    -0.58540
N1130       N  0.66009145  0.80398166  0.79718206    -0.06100
N1131       N  0.63072623  0.81050610  0.82741917    -0.60660
N1132       N  0.69267825  0.83687347  0.79647308    -0.05690
N1133       N  0.68585764  0.86679454  0.82582385    -0.58510
N1134       N  0.65851598  0.80329560  0.70515962    -0.05370
N1135       N  0.62673110  0.81064744  0.67697035    -0.61020
C1136       C  0.64243490  0.84974751  0.65839857     0.95760
C1137       C  0.64763513  0.84952467  0.84519756     0.95540
N1138       N  0.69444558  0.66363214  0.79948875    -0.06600
N1139       N  0.68673818  0.63451731  0.82937931    -0.59110
N1140       N  0.66189274  0.69191282  0.70673828    -0.04720
N1141       N  0.63184202  0.68170620  0.67798794    -0.60370
N1142       N  0.69546172  0.66012488  0.70823616    -0.06630
N1143       N  0.68915097  0.62790931  0.68069117    -0.59380
N1144       N  0.66071601  0.69525272  0.79797645    -0.04360
N1145       N  0.62937046  0.68839345  0.82657708    -0.60450
Mn1146     Mn  0.65877329  0.74865613  0.75148934     1.18440
C1147       C  0.64597402  0.65042105  0.84595151     0.97840
C1148       C  0.64939956  0.64169748  0.66188190     0.98510
N1149       N  0.80483532  0.83893518  0.79538036    -0.06650
N1150       N  0.81308242  0.87006550  0.82359730    -0.62960
N1151       N  0.83655494  0.80562237  0.70360430    -0.05450
N1152       N  0.86689313  0.81427062  0.67444317    -0.63630
N1153       N  0.80279498  0.83732475  0.70392244    -0.06160
N1154       N  0.80940746  0.86803134  0.67516132    -0.63220
N1155       N  0.83860078  0.80721998  0.79493869    -0.05050
N1156       N  0.87050731  0.81619262  0.82259927    -0.63910
Mn1157     Mn  0.74779437  0.83875760  0.75007776     1.10660
C1158       C  0.85420558  0.85550342  0.84029482     0.99060
C1159       C  0.84947621  0.85342183  0.65697292     0.99140
N1160       N  0.80537045  0.66230937  0.70679080    -0.06170
N1161       N  0.81177724  0.63205190  0.67755775    -0.61540
N1162       N  0.83928311  0.69710766  0.79773233    -0.05480
N1163       N  0.86993170  0.68960728  0.82686181    -0.58270
N1164       N  0.80589018  0.66506509  0.79846269    -0.06790
N1165       N  0.81300680  0.63521796  0.82768833    -0.61110
N1166       N  0.83775862  0.69534320  0.70536444    -0.05780
N1167       N  0.86693912  0.68828187  0.67513922    -0.58290
Mn1168     Mn  0.75043559  0.66145004  0.75347495     1.20190
Mn1169     Mn  0.83971988  0.75122774  0.75033565     1.10090
Cl1170     Cl  0.74920871  0.75013523  0.75128240    -0.86260
C1171       C  0.84981113  0.64911681  0.65781030     0.96070
C1172       C  0.85300480  0.65066459  0.84519401     0.95870
C1173       C  0.94635628  0.96056580  0.96893585    -0.02790
C1174       C  0.94835112  0.54735714  0.97320813    -0.02790
C1175       C  0.54962409  0.95920096  0.96739642    -0.02790
C1176       C  0.55199101  0.54539182  0.97295990    -0.02790
C1177       C  0.52343103  0.50410067  0.95510207     0.00270
C1178       C  0.97439661  0.50464263  0.95521765     0.00270
C1179       C  0.94784131  0.95561850  0.53022979    -0.02790
C1180       C  0.55070947  0.95425185  0.52936152    -0.02790
C1181       C  0.52175823  0.93020703  0.49723893     0.00270
C1182       C  0.97462965  0.93088349  0.49756578     0.00270
C1183       C  0.55082341  0.54122476  0.53454566    -0.02790
C1184       C  0.97556846  0.49724516  0.54744481     0.00270
C1185       C  0.52430355  0.49673613  0.54755405     0.00270
C1186       C  0.58284464  0.52231521  0.50284891     0.00270
C1187       C  0.58231916  0.97666548  0.49925989     0.00270
C1188       C  0.97699908  0.57115095  0.50519334     0.00270
C1189       C  0.52407710  0.57064328  0.50468767     0.00270
C1190       C  0.94918881  0.54232998  0.53507616    -0.02790
C1191       C  0.91538534  0.97917248  0.50143651     0.00270
C1192       C  0.91590617  0.52509510  0.50352281     0.00270
C1193       C  0.92028882  0.93239855  0.93653513    -0.00450
C1194       C  0.94810145  0.90630095  0.90975680    -0.12330
C1195       C  0.92776016  0.87988775  0.87898338     0.01780
C1196       C  0.87816910  0.88020937  0.87350385    -0.00540
C1197       C  0.85009995  0.90571149  0.90005789    -0.12270
C1198       C  0.86994142  0.93081422  0.93161919     0.01670
H1199       H  0.98612458  0.90625332  0.91299619     0.14650
H1200       H  0.81195167  0.90586472  0.89624302     0.14650
C1201       C  0.83661011  0.95602455  0.95633910     0.36300
C1202       C  0.95895436  0.85388781  0.85301972     0.36210
N1203       N  0.80940109  0.97631813  0.97554680    -0.44040
N1204       N  0.98417695  0.83295408  0.83245698    -0.44040
C1205       C  0.87665422  0.62550929  0.87826855    -0.00450
C1206       C  0.90441077  0.65023292  0.90564365    -0.12330
C1207       C  0.92729356  0.62729748  0.93733292     0.01780
C1208       C  0.92257372  0.57788856  0.94215468    -0.00540
C1209       C  0.89435007  0.55410064  0.91438786    -0.12270
C1210       C  0.87207607  0.57669697  0.88280601     0.01670
H1211       H  0.90850714  0.68773978  0.90211532     0.14650
H1212       H  0.89120610  0.51690350  0.91610982     0.14650
C1213       C  0.84733035  0.54789982  0.85420817     0.36300
C1214       C  0.95717930  0.65605552  0.96193884     0.36210
N1215       N  0.82785584  0.52457375  0.83131475    -0.44040
N1216       N  0.98162832  0.68063801  0.97993427    -0.44040
C1217       C  0.57467817  0.93096116  0.93435719    -0.00450
C1218       C  0.59190672  0.88575332  0.94363161    -0.12330
C1219       C  0.61387108  0.85756593  0.91475685     0.01780
C1220       C  0.62236138  0.87562055  0.87645145    -0.00540
C1221       C  0.60583194  0.92006823  0.86680742    -0.12270
C1222       C  0.58045398  0.94688042  0.89426364     0.01670
H1223       H  0.58723084  0.87167998  0.97338651     0.14650
H1224       H  0.61099402  0.93311607  0.83667702     0.14650
C1225       C  0.55874981  0.98827544  0.87800007     0.36300
C1226       C  0.62723134  0.81034605  0.92503007     0.36210
N1227       N  0.54100671  0.02000115  0.86268709    -0.44040
N1228       N  0.63733628  0.77227855  0.93314131    -0.44040
C1229       C  0.87291617  0.87881401  0.62378257    -0.00450
C1230       C  0.90477861  0.85468424  0.59915634    -0.12330
C1231       C  0.92874864  0.87735394  0.56797868     0.01780
C1232       C  0.92122726  0.92595271  0.56105470    -0.00540
C1233       C  0.88816426  0.94932043  0.58528768    -0.12270
C1234       C  0.86473331  0.92680917  0.61652000     0.01670
H1235       H  0.91115305  0.81776651  0.60434914     0.14650
H1236       H  0.88094319  0.98596320  0.58021336     0.14650
C1237       C  0.83462766  0.95495082  0.64177999     0.36300
C1238       C  0.96116044  0.84923394  0.54485914     0.36210
N1239       N  0.81092145  0.97775238  0.66215933    -0.44040
N1240       N  0.98703913  0.82611422  0.52670780    -0.44040
C1241       C  0.62191618  0.62771761  0.88003400    -0.00450
C1242       C  0.64971539  0.60364297  0.90759261    -0.12330
C1243       C  0.62936184  0.57869427  0.93909463     0.01780
C1244       C  0.57889867  0.57627914  0.94299973    -0.00540
C1245       C  0.55159949  0.60199961  0.91584714    -0.12270
C1246       C  0.57226745  0.62786781  0.88492384     0.01670
H1247       H  0.68796981  0.60425042  0.90442962     0.14650
H1248       H  0.51363504  0.59957219  0.91730510     0.14650
C1249       C  0.54123381  0.65145268  0.85729618     0.36300
C1250       C  0.66253771  0.55639415  0.96575235     0.36210
N1251       N  0.51609738  0.67025103  0.83529899    -0.44040
N1252       N  0.68974804  0.53907842  0.98687820    -0.44040
C1253       C  0.57564483  0.92243813  0.56002652    -0.00450
C1254       C  0.54876733  0.90719605  0.59299931    -0.12330
C1255       C  0.56921377  0.88229266  0.62466609     0.01780
C1256       C  0.61818943  0.87283455  0.62450441    -0.00540
C1257       C  0.64524120  0.88683536  0.59165665    -0.12270
C1258       C  0.62477621  0.91034392  0.55928572     0.01670
H1259       H  0.51175989  0.91643195  0.59492577     0.14650
H1260       H  0.68278957  0.87880780  0.59109990     0.14650
C1261       C  0.65595105  0.92004059  0.52611997     0.36300
C1262       C  0.53960648  0.86939158  0.65805863     0.36210
N1263       N  0.68143761  0.92721820  0.49973638    -0.44040
N1264       N  0.51579547  0.85915001  0.68480335    -0.44040
C1265       C  0.87484034  0.62324598  0.62637783    -0.00450
C1266       C  0.90739273  0.58928758  0.63800286    -0.12330
C1267       C  0.93261044  0.56321105  0.60986307     0.01780
C1268       C  0.92440373  0.57021829  0.56827414    -0.00540
C1269       C  0.89156966  0.60512027  0.55709395    -0.12270
C1270       C  0.86719536  0.63165937  0.58565131     0.01670
H1271       H  0.91348655  0.58342182  0.66957087     0.14650
H1272       H  0.88512367  0.61196161  0.52577801     0.14650
C1273       C  0.83474729  0.66745695  0.57252891     0.36300
C1274       C  0.96682826  0.53075678  0.62582668     0.36210
N1275       N  0.80888471  0.69626805  0.56193162    -0.44040
N1276       N  0.99386764  0.50501462  0.63961999    -0.44200
C1277       C  0.57597928  0.56828915  0.56768536    -0.00450
C1278       C  0.61674335  0.54842133  0.58481658    -0.12330
C1279       C  0.64208933  0.57154843  0.61484182     0.01780
C1280       C  0.62605978  0.61532132  0.62930828    -0.00540
C1281       C  0.58523012  0.63468950  0.61290078    -0.12270
C1282       C  0.56018703  0.61218925  0.58281978     0.01670
H1283       H  0.62929623  0.51477742  0.57434155     0.14650
H1284       H  0.57228341  0.66805081  0.62384656     0.14650
C1285       C  0.51820110  0.63637523  0.57013116     0.36300
C1286       C  0.68431347  0.54929239  0.62977667     0.36210
N1287       N  0.48531088  0.65859472  0.56228252    -0.44040
N1288       N  0.71824045  0.53130730  0.64148977    -0.44040
loop_ 
_geom_bond_atom_site_label_1 
_geom_bond_atom_site_label_2 
_geom_bond_distance 
_geom_bond_site_symmetry_2 
_ccdc_geom_bond_type 
N1            N2   1.322       .  A
N1            N7   1.316       .  A
N1          Mn30   2.218       .  S
N2            C9   1.355       .  A
N3            N5   1.316       .  A
N3            N4   1.322       .  A
N3          Mn19   2.204       .  S
N4           C10   1.353       .  A
N5            N6   1.319       .  A
N5          Mn30   2.199       .  S
N6           C10   1.352       .  A
N7            N8   1.322       .  A
N7          Mn19   2.203       .  S
N8            C9   1.353       .  A
C9          C129   1.483       .  S
C10          C93   1.471       .  S
N11          N17   1.314       .  A
N11          N12   1.320       .  A
N11         Mn41   2.208       .  S
N12          C20   1.356       .  A
N13          N14   1.319       .  A
N13          N15   1.314       .  A
N13         Mn19   2.212       .  S
N14          C21   1.358       .  A
N15          N16   1.317       .  A
N15         Mn41   2.174       .  S
N16          C21   1.348       .  A
N17          N18   1.318       .  A
N17         Mn19   2.182       .  S
N18          C20   1.349       .  A
Mn19        Cl43   2.554       .  S
C20         C114   1.478       .  S
C21         C153   1.484       .  S
N22          N23   1.321       .  A
N22          N28   1.316       .  A
N22         Mn30   2.218       .  S
N23          C31   1.356       .  A
N24          N26   1.315       .  A
N24          N25   1.322       .  A
N24         Mn42   2.209       .  S
N25          C32   1.356       .  A
N26          N27   1.317       .  A
N26         Mn30   2.191       .  S
N27          C32   1.351       .  A
N28          N29   1.320       .  A
N28         Mn42   2.192       .  S
N29          C31   1.352       .  A
Mn30        Cl43   2.533       .  S
C31          C69   1.484       .  S
C32         C102   1.483       .  S
N33          N34   1.320       .  A
N33          N39   1.315       .  A
N33         Mn41   2.202       .  S
N34          C44   1.351       .  A
N35          N36   1.325       .  A
N35          N37   1.315       .  A
N35         Mn42   2.218       .  S
N36          C45   1.358       .  A
N37          N38   1.315       .  A
N37         Mn41   2.180       .  S
N38          C45   1.349       .  A
N39          N40   1.321       .  A
N39         Mn42   2.199       .  S
N40          C44   1.352       .  A
Mn41        Cl43   2.536       .  S
Mn42        Cl43   2.556       .  S
C44         C138   1.468       .  S
C45          C78   1.482       .  S
C46          C66   1.542       .  S
C46         C373   1.557       .  S
C46         C216   1.511       .  S
C46         C225   1.494       .  S
C47          C81   1.543       .  S
C47          C51   1.548       .  S
C47         C222   1.508       .  S
C47         C226   1.508       .  S
C48          C90   1.542       .  S
C48         C372   1.538       .  S
C48         C215   1.517       .  S
C48         C221   1.500       .  S
C49         C117   1.537       .  S
C49          C50   1.551       .  S
C49         C220   1.484       .  S
C49         C223   1.508       .  S
C50         C370   1.538   1_545  S
C50         C695   1.385   1_455  D
C51         C368   1.557   1_545  S
C51         C694   1.385       .  D
C52         C105   1.532       .  S
C52          C55   1.507   1_554  S
C52          C64   1.493       .  S
C52         C379   1.538       .  S
C53         C126   1.544       .  S
C53          C54   1.519   1_554  S
C53          C60   1.490   1_554  S
C53         C380   1.550       .  S
C54         C209   1.517       .  S
C54         C699   1.331   1_455  D
C55         C207   1.511       .  S
C55         C698   1.331       .  D
C56         C150   1.531       .  S
C56          C58   1.538   1_545  S
C56          C59   1.496       .  S
C56          C62   1.511       .  S
C57          C63   1.546   1_565  S
C57         C374   1.538       .  S
C57         C702   1.376       .  D
C58         C375   1.550       .  S
C58         C701   1.376   1_455  D
C59         C210   1.484   1_554  S
C59         C382   1.310   1_544  D
C60         C209   1.500       .  S
C60         C381   1.310   1_556  D
C61          C63   1.515       .  S
C61         C208   1.508   1_554  S
C61         C706   1.330       .  D
C62         C210   1.508   1_554  S
C62         C705   1.330   1_455  D
C63         C141   1.537       .  S
C63          C65   1.501       .  S
C64         C207   1.494   1_554  S
C64         C387   1.314       .  D
C65         C208   1.508   1_554  S
C65         C386   1.314   1_545  D
C66          C67   1.406       .  A
C66          C71   1.433       .  A
C67          C68   1.404       .  A
C67          H72   1.080       .  S
C68          C69   1.413       .  A
C68          C75   1.444       .  S
C69          C70   1.397       .  A
C70          C71   1.398       .  A
C70          H73   1.085       .  S
C71          C74   1.446       .  S
C74          N76   1.158       .  T
C75          N77   1.157       .  T
C78          C79   1.401       .  A
C78          C83   1.409       .  A
C79          C80   1.407       .  A
C79          H84   1.085       .  S
C80          C81   1.427       .  A
C80          C87   1.440       .  S
C81          C82   1.404       .  A
C82          C83   1.392       .  A
C82          H85   1.068       .  S
C83          C86   1.446       .  S
C86          N88   1.157       .  T
C87          N89   1.156       .  T
C90          C91   1.415       .  A
C90          C95   1.429       .  A
C91          C92   1.404       .  A
C91          H96   1.084       .  S
C92          C93   1.405       .  A
C92          C99   1.443       .  S
C93          C94   1.392       .  A
C94          C95   1.395       .  A
C94          H97   1.087       .  S
C95          C98   1.440       .  S
C98         N100   1.157       .  T
C99         N101   1.157       .  T
C102        C103   1.402       .  A
C102        C107   1.412       .  A
C103        C104   1.403       .  A
C103        H108   1.084       .  S
C104        C105   1.424       .  A
C104        C111   1.443       .  S
C105        C106   1.406       .  A
C106        C107   1.395       .  A
C106        H109   1.080       .  S
C107        C110   1.444       .  S
C110        N112   1.157       .  T
C111        N113   1.158       .  T
C114        C115   1.396       .  A
C114        C119   1.411       .  A
C115        C116   1.397       .  A
C115        H120   1.085       .  S
C116        C117   1.432       .  A
C116        C123   1.445       .  S
C117        C118   1.403       .  A
C118        C119   1.400       .  A
C118        H121   1.075       .  S
C119        C122   1.444       .  S
C122        N124   1.157       .  T
C123        N125   1.158       .  T
C126        C127   1.409       .  A
C126        C131   1.430       .  A
C127        C128   1.404       .  A
C127        H132   1.080       .  S
C128        C129   1.409       .  A
C128        C135   1.444       .  S
C129        C130   1.398       .  A
C130        C131   1.403       .  A
C130        H133   1.085       .  S
C131        C134   1.444       .  S
C134        N136   1.158   1_554  T
C135        N137   1.157       .  T
C138        C139   1.393       .  A
C138        C143   1.404       .  A
C139        C140   1.397       .  A
C139        H144   1.086       .  S
C140        C141   1.429       .  A
C140        C147   1.443       .  S
C141        C142   1.413       .  A
C142        C143   1.402       .  A
C142        H145   1.084       .  S
C143        C146   1.443       .  S
C146        N148   1.157       .  T
C147        N149   1.158       .  T
C150        C151   1.408       .  A
C150        C155   1.425       .  A
C151        C152   1.403       .  A
C151        H156   1.083       .  S
C152        C153   1.416       .  A
C152        C159   1.442       .  S
C153        C154   1.394       .  A
C154        C155   1.392       .  A
C154        H157   1.085       .  S
C155        C158   1.438       .  S
C158        N160   1.156   1_455  T
C159        N161   1.157       .  T
N162        N163   1.322       .  A
N162        N168   1.316       .  A
N162       Mn191   2.218       .  S
N163        C170   1.355       .  A
N164        N166   1.316       .  A
N164        N165   1.322       .  A
N164       Mn180   2.204       .  S
N165        C171   1.353       .  A
N166        N167   1.319       .  A
N166       Mn191   2.199       .  S
N167        C171   1.352       .  A
N168        N169   1.322       .  A
N168       Mn180   2.203       .  S
N169        C170   1.353       .  A
C170        C290   1.483       .  S
C171        C254   1.471       .  S
N172        N178   1.314       .  A
N172        N173   1.320       .  A
N172       Mn202   2.208       .  S
N173        C181   1.356       .  A
N174        N175   1.319       .  A
N174        N176   1.314       .  A
N174       Mn180   2.213       .  S
N175        C182   1.358       .  A
N176        N177   1.317       .  A
N176       Mn202   2.174       .  S
N177        C182   1.348       .  A
N178        N179   1.318       .  A
N178       Mn180   2.182       .  S
N179        C181   1.349       .  A
Mn180      Cl204   2.554       .  S
C181        C275   1.478       .  S
C182        C314   1.484       .  S
N183        N184   1.321       .  A
N183        N189   1.316       .  A
N183       Mn191   2.218       .  S
N184        C192   1.356       .  A
N185        N187   1.315       .  A
N185        N186   1.322       .  A
N185       Mn203   2.209       .  S
N186        C193   1.356       .  A
N187        N188   1.317       .  A
N187       Mn191   2.191       .  S
N188        C193   1.351       .  A
N189        N190   1.320       .  A
N189       Mn203   2.192       .  S
N190        C192   1.352       .  A
Mn191      Cl204   2.534       .  S
C192        C230   1.484       .  S
C193        C263   1.483       .  S
N194        N195   1.320       .  A
N194        N200   1.315       .  A
N194       Mn202   2.202       .  S
N195        C205   1.351       .  A
N196        N197   1.325       .  A
N196        N198   1.315       .  A
N196       Mn203   2.217       .  S
N197        C206   1.357       .  A
N198        N199   1.315       .  A
N198       Mn202   2.180       .  S
N199        C206   1.349       .  A
N200        N201   1.321       .  A
N200       Mn203   2.199       .  S
N201        C205   1.352       .  A
Mn202      Cl204   2.536       .  S
Mn203      Cl204   2.556       .  S
C205        C299   1.468       .  S
C206        C239   1.482       .  S
C207        C227   1.542       .  S
C207        C534   1.557       .  S
C208        C242   1.543       .  S
C208        C212   1.548       .  S
C209        C251   1.542       .  S
C209        C533   1.538       .  S
C210        C278   1.537       .  S
C210        C211   1.551       .  S
C211        C531   1.538   1_545  S
C211        C856   1.385   1_455  D
C212        C529   1.557   1_545  S
C212        C855   1.385       .  D
C213        C266   1.532       .  S
C213        C216   1.507       .  S
C213        C540   1.538       .  S
C213        C225   1.493       .  S
C214        C287   1.544       .  S
C214        C215   1.519       .  S
C214        C541   1.550       .  S
C214        C221   1.490       .  S
C215        C860   1.331   1_455  D
C216        C859   1.331       .  D
C217        C311   1.531       .  S
C217        C219   1.538   1_545  S
C217        C220   1.496       .  S
C217        C223   1.511       .  S
C218        C535   1.538       .  S
C218        C224   1.546   1_565  S
C218        C863   1.376       .  D
C219        C536   1.550       .  S
C219        C862   1.376   1_455  D
C220        C543   1.310   1_545  D
C221        C542   1.310       .  D
C222        C224   1.515       .  S
C222        C867   1.330       .  D
C223        C866   1.330   1_455  D
C224        C302   1.537       .  S
C224        C226   1.501       .  S
C225        C548   1.314       .  D
C226        C547   1.314   1_545  D
C227        C228   1.406       .  A
C227        C232   1.433       .  A
C228        C229   1.404       .  A
C228        H233   1.080       .  S
C229        C230   1.413       .  A
C229        C236   1.444       .  S
C230        C231   1.397       .  A
C231        C232   1.398       .  A
C231        H234   1.085       .  S
C232        C235   1.446       .  S
C235        N237   1.158       .  T
C236        N238   1.157       .  T
C239        C240   1.401       .  A
C239        C244   1.409       .  A
C240        C241   1.407       .  A
C240        H245   1.085       .  S
C241        C242   1.427       .  A
C241        C248   1.440       .  S
C242        C243   1.404       .  A
C243        C244   1.392       .  A
C243        H246   1.068       .  S
C244        C247   1.446       .  S
C247        N249   1.157       .  T
C248        N250   1.156       .  T
C251        C252   1.415       .  A
C251        C256   1.429       .  A
C252        C253   1.404       .  A
C252        H257   1.084       .  S
C253        C254   1.405       .  A
C253        C260   1.443       .  S
C254        C255   1.392       .  A
C255        C256   1.395       .  A
C255        H258   1.087       .  S
C256        C259   1.440       .  S
C259        N261   1.157       .  T
C260        N262   1.157       .  T
C263        C264   1.402       .  A
C263        C268   1.412       .  A
C264        C265   1.403       .  A
C264        H269   1.084       .  S
C265        C266   1.424       .  A
C265        C272   1.443       .  S
C266        C267   1.406       .  A
C267        C268   1.395       .  A
C267        H270   1.080       .  S
C268        C271   1.444       .  S
C271        N273   1.157       .  T
C272        N274   1.158       .  T
C275        C276   1.396       .  A
C275        C280   1.411       .  A
C276        C277   1.397       .  A
C276        H281   1.085       .  S
C277        C278   1.432       .  A
C277        C284   1.445       .  S
C278        C279   1.403       .  A
C279        C280   1.400       .  A
C279        H282   1.075       .  S
C280        C283   1.444       .  S
C283        N285   1.157       .  T
C284        N286   1.158       .  T
C287        C288   1.409       .  A
C287        C292   1.430       .  A
C288        C289   1.404       .  A
C288        H293   1.080       .  S
C289        C290   1.409       .  A
C289        C296   1.444       .  S
C290        C291   1.398       .  A
C291        C292   1.403       .  A
C291        H294   1.085       .  S
C292        C295   1.444       .  S
C295        N297   1.158       .  T
C296        N298   1.157       .  T
C299        C300   1.393       .  A
C299        C304   1.404       .  A
C300        C301   1.397       .  A
C300        H305   1.086       .  S
C301        C302   1.429       .  A
C301        C308   1.443       .  S
C302        C303   1.413       .  A
C303        C304   1.402       .  A
C303        H306   1.084       .  S
C304        C307   1.443       .  S
C307        N309   1.157       .  T
C308        N310   1.158       .  T
C311        C312   1.408       .  A
C311        C316   1.425       .  A
C312        C313   1.403       .  A
C312        H317   1.083       .  S
C313        C314   1.416       .  A
C313        C320   1.442       .  S
C314        C315   1.394       .  A
C315        C316   1.392       .  A
C315        H318   1.085       .  S
C316        C319   1.438       .  S
C319        N321   1.156   1_455  T
C320        N322   1.157       .  T
N323        N324   1.322       .  A
N323        N329   1.316       .  A
N323       Mn352   2.218       .  S
N324        C331   1.355       .  A
N325        N327   1.316       .  A
N325        N326   1.322       .  A
N325       Mn341   2.204       .  S
N326        C332   1.353       .  A
N327        N328   1.319       .  A
N327       Mn352   2.199       .  S
N328        C332   1.352       .  A
N329        N330   1.322       .  A
N329       Mn341   2.203       .  S
N330        C331   1.353       .  A
C331        C451   1.483       .  S
C332        C415   1.471       .  S
N333        N339   1.314       .  A
N333        N334   1.320       .  A
N333       Mn363   2.208       .  S
N334        C342   1.356       .  A
N335        N336   1.319       .  A
N335        N337   1.314       .  A
N335       Mn341   2.213       .  S
N336        C343   1.358       .  A
N337        N338   1.317       .  A
N337       Mn363   2.174       .  S
N338        C343   1.348       .  A
N339        N340   1.318       .  A
N339       Mn341   2.182       .  S
N340        C342   1.349       .  A
Mn341      Cl365   2.554       .  S
C342        C436   1.478       .  S
C343        C475   1.484       .  S
N344        N345   1.321       .  A
N344        N350   1.316       .  A
N344       Mn352   2.218       .  S
N345        C353   1.356       .  A
N346        N348   1.315       .  A
N346        N347   1.322       .  A
N346       Mn364   2.209       .  S
N347        C354   1.356       .  A
N348        N349   1.317       .  A
N348       Mn352   2.191       .  S
N349        C354   1.351       .  A
N350        N351   1.320       .  A
N350       Mn364   2.192       .  S
N351        C353   1.352       .  A
Mn352      Cl365   2.533       .  S
C353        C391   1.484       .  S
C354        C424   1.483       .  S
N355        N356   1.320       .  A
N355        N361   1.315       .  A
N355       Mn363   2.202       .  S
N356        C366   1.351       .  A
N357        N358   1.325       .  A
N357        N359   1.315       .  A
N357       Mn364   2.218       .  S
N358        C367   1.358       .  A
N359        N360   1.315       .  A
N359       Mn363   2.180       .  S
N360        C367   1.349       .  A
N361        N362   1.321       .  A
N361       Mn364   2.199       .  S
N362        C366   1.352       .  A
Mn363      Cl365   2.536       .  S
Mn364      Cl365   2.556       .  S
C366        C460   1.468       .  S
C367        C400   1.482       .  S
C368        C388   1.542       .  S
C368        C538   1.511       .  S
C368        C547   1.494       .  S
C369        C403   1.543       .  S
C369        C373   1.548       .  S
C369        C544   1.508       .  S
C369        C548   1.508       .  S
C370        C412   1.542       .  S
C370        C537   1.517       .  S
C370        C543   1.500       .  S
C371        C439   1.537       .  S
C371        C372   1.551       .  S
C371        C542   1.484       .  S
C371        C545   1.508       .  S
C372       C1017   1.385   1_455  D
C373       C1016   1.385       .  D
C374        C427   1.532       .  S
C374        C377   1.507   1_554  S
C374        C386   1.493       .  S
C375        C448   1.544       .  S
C375        C376   1.519   1_554  S
C375        C382   1.490   1_554  S
C376        C531   1.517       .  S
C376       C1021   1.331   1_455  D
C377        C529   1.511       .  S
C377       C1020   1.331       .  D
C378        C472   1.531       .  S
C378        C380   1.538       .  S
C378        C381   1.496       .  S
C378        C384   1.511       .  S
C379        C385   1.546       .  S
C379       C1024   1.376       .  D
C380       C1023   1.376   1_455  D
C381        C532   1.484   1_554  S
C382        C531   1.500       .  S
C383        C530   1.508   1_554  S
C383        C385   1.515       .  S
C383       C1028   1.330       .  D
C384        C532   1.508   1_554  S
C384       C1027   1.330   1_455  D
C385        C463   1.537       .  S
C385        C387   1.501       .  S
C386        C529   1.494   1_554  S
C387        C530   1.508   1_554  S
C388        C389   1.406       .  A
C388        C393   1.433       .  A
C389        C390   1.404       .  A
C389        H394   1.079       .  S
C390        C391   1.413       .  A
C390        C397   1.444       .  S
C391        C392   1.397       .  A
C392        C393   1.398       .  A
C392        H395   1.085       .  S
C393        C396   1.446       .  S
C396        N398   1.158       .  T
C397        N399   1.157       .  T
C400        C401   1.401       .  A
C400        C405   1.409       .  A
C401        C402   1.407       .  A
C401        H406   1.085       .  S
C402        C403   1.427       .  A
C402        C409   1.440       .  S
C403        C404   1.404       .  A
C404        C405   1.392       .  A
C404        H407   1.068       .  S
C405        C408   1.446       .  S
C408        N410   1.157       .  T
C409        N411   1.156       .  T
C412        C413   1.415       .  A
C412        C417   1.429       .  A
C413        C414   1.404       .  A
C413        H418   1.084       .  S
C414        C415   1.405       .  A
C414        C421   1.443       .  S
C415        C416   1.392       .  A
C416        C417   1.395       .  A
C416        H419   1.087       .  S
C417        C420   1.440       .  S
C420        N422   1.157   1_565  T
C421        N423   1.157       .  T
C424        C425   1.402       .  A
C424        C429   1.412       .  A
C425        C426   1.403       .  A
C425        H430   1.084       .  S
C426        C427   1.424       .  A
C426        C433   1.443       .  S
C427        C428   1.406       .  A
C428        C429   1.395       .  A
C428        H431   1.080       .  S
C429        C432   1.444       .  S
C432        N434   1.157       .  T
C433        N435   1.158       .  T
C436        C437   1.396       .  A
C436        C441   1.411       .  A
C437        C438   1.397       .  A
C437        H442   1.085       .  S
C438        C439   1.432       .  A
C438        C445   1.445       .  S
C439        C440   1.403       .  A
C440        C441   1.400       .  A
C440        H443   1.075       .  S
C441        C444   1.444       .  S
C444        N446   1.157       .  T
C445        N447   1.158       .  T
C448        C449   1.409       .  A
C448        C453   1.430       .  A
C449        C450   1.404       .  A
C449        H454   1.080       .  S
C450        C451   1.409       .  A
C450        C457   1.444       .  S
C451        C452   1.398       .  A
C452        C453   1.403       .  A
C452        H455   1.085       .  S
C453        C456   1.444       .  S
C456        N458   1.158   1_554  T
C457        N459   1.157       .  T
C460        C461   1.393       .  A
C460        C465   1.404       .  A
C461        C462   1.397       .  A
C461        H466   1.086       .  S
C462        C463   1.429       .  A
C462        C469   1.443       .  S
C463        C464   1.413       .  A
C464        C465   1.402       .  A
C464        H467   1.084       .  S
C465        C468   1.443       .  S
C468        N470   1.157       .  T
C469        N471   1.158       .  T
C472        C473   1.408       .  A
C472        C477   1.425       .  A
C473        C474   1.403       .  A
C473        H478   1.083       .  S
C474        C475   1.416       .  A
C474        C481   1.442       .  S
C475        C476   1.394       .  A
C476        C477   1.392       .  A
C476        H479   1.085       .  S
C477        C480   1.438       .  S
C480        N482   1.156   1_455  T
C481        N483   1.157       .  T
N484        N485   1.322       .  A
N484        N490   1.316       .  A
N484       Mn513   2.218       .  S
N485        C492   1.355       .  A
N486        N488   1.316       .  A
N486        N487   1.322       .  A
N486       Mn502   2.204       .  S
N487        C493   1.353       .  A
N488        N489   1.319       .  A
N488       Mn513   2.199       .  S
N489        C493   1.352       .  A
N490        N491   1.322       .  A
N490       Mn502   2.203       .  S
N491        C492   1.353       .  A
C492        C612   1.483       .  S
C493        C576   1.471       .  S
N494        N500   1.314       .  A
N494        N495   1.320       .  A
N494       Mn524   2.208       .  S
N495        C503   1.356       .  A
N496        N497   1.319       .  A
N496        N498   1.314       .  A
N496       Mn502   2.213       .  S
N497        C504   1.358       .  A
N498        N499   1.317       .  A
N498       Mn524   2.174       .  S
N499        C504   1.348       .  A
N500        N501   1.318       .  A
N500       Mn502   2.182       .  S
N501        C503   1.349       .  A
Mn502      Cl526   2.554       .  S
C503        C597   1.478       .  S
C504        C636   1.484       .  S
N505        N506   1.321       .  A
N505        N511   1.316       .  A
N505       Mn513   2.218       .  S
N506        C514   1.356       .  A
N507        N509   1.315       .  A
N507        N508   1.322       .  A
N507       Mn525   2.209       .  S
N508        C515   1.356       .  A
N509        N510   1.317       .  A
N509       Mn513   2.191       .  S
N510        C515   1.351       .  A
N511        N512   1.320       .  A
N511       Mn525   2.192       .  S
N512        C514   1.352       .  A
Mn513      Cl526   2.534       .  S
C514        C552   1.484       .  S
C515        C585   1.483       .  S
N516        N517   1.320       .  A
N516        N522   1.315       .  A
N516       Mn524   2.202       .  S
N517        C527   1.351       .  A
N518        N519   1.325       .  A
N518        N520   1.315       .  A
N518       Mn525   2.218       .  S
N519        C528   1.358       .  A
N520        N521   1.315       .  A
N520       Mn524   2.180       .  S
N521        C528   1.349       .  A
N522        N523   1.321       .  A
N522       Mn525   2.199       .  S
N523        C527   1.352       .  A
Mn524      Cl526   2.536       .  S
Mn525      Cl526   2.556       .  S
C527        C621   1.468       .  S
C528        C561   1.482       .  S
C529        C549   1.542       .  S
C530        C564   1.543       .  S
C530        C534   1.548       .  S
C531        C573   1.542       .  S
C532        C600   1.537       .  S
C532        C533   1.551       .  S
C533       C1178   1.385   1_455  D
C534       C1177   1.385       .  D
C535        C588   1.532       .  S
C535        C538   1.507       .  S
C535        C547   1.493       .  S
C536        C609   1.544       .  S
C536        C537   1.519       .  S
C536        C543   1.490       .  S
C537       C1182   1.331   1_455  D
C538       C1181   1.331       .  D
C539        C633   1.531       .  S
C539        C541   1.538       .  S
C539        C542   1.496       .  S
C539        C545   1.511       .  S
C540        C546   1.546       .  S
C540       C1185   1.376       .  D
C541       C1184   1.376   1_455  D
C544        C546   1.515       .  S
C544       C1189   1.330       .  D
C545       C1188   1.330   1_455  D
C546        C624   1.537       .  S
C546        C548   1.501       .  S
C549        C550   1.406       .  A
C549        C554   1.433       .  A
C550        C551   1.404       .  A
C550        H555   1.080       .  S
C551        C552   1.413       .  A
C551        C558   1.444       .  S
C552        C553   1.397       .  A
C553        C554   1.398       .  A
C553        H556   1.085       .  S
C554        C557   1.446       .  S
C557        N559   1.158       .  T
C558        N560   1.157       .  T
C561        C562   1.401       .  A
C561        C566   1.409       .  A
C562        C563   1.407       .  A
C562        H567   1.085       .  S
C563        C564   1.427       .  A
C563        C570   1.440       .  S
C564        C565   1.404       .  A
C565        C566   1.392       .  A
C565        H568   1.068       .  S
C566        C569   1.446       .  S
C569        N571   1.157       .  T
C570        N572   1.156       .  T
C573        C574   1.415       .  A
C573        C578   1.429       .  A
C574        C575   1.404       .  A
C574        H579   1.084       .  S
C575        C576   1.405       .  A
C575        C582   1.443       .  S
C576        C577   1.392       .  A
C577        C578   1.395       .  A
C577        H580   1.087       .  S
C578        C581   1.440       .  S
C581        N583   1.157   1_565  T
C582        N584   1.157       .  T
C585        C586   1.402       .  A
C585        C590   1.412       .  A
C586        C587   1.403       .  A
C586        H591   1.084       .  S
C587        C588   1.424       .  A
C587        C594   1.443       .  S
C588        C589   1.406       .  A
C589        C590   1.395       .  A
C589        H592   1.080       .  S
C590        C593   1.444       .  S
C593        N595   1.157       .  T
C594        N596   1.158       .  T
C597        C598   1.396       .  A
C597        C602   1.411       .  A
C598        C599   1.397       .  A
C598        H603   1.085       .  S
C599        C600   1.432       .  A
C599        C606   1.445       .  S
C600        C601   1.403       .  A
C601        C602   1.400       .  A
C601        H604   1.075       .  S
C602        C605   1.444       .  S
C605        N607   1.157       .  T
C606        N608   1.158       .  T
C609        C610   1.409       .  A
C609        C614   1.430       .  A
C610        C611   1.404       .  A
C610        H615   1.080       .  S
C611        C612   1.409       .  A
C611        C618   1.444       .  S
C612        C613   1.398       .  A
C613        C614   1.403       .  A
C613        H616   1.085       .  S
C614        C617   1.444       .  S
C617        N619   1.158       .  T
C618        N620   1.157       .  T
C621        C622   1.393       .  A
C621        C626   1.404       .  A
C622        C623   1.397       .  A
C622        H627   1.086       .  S
C623        C624   1.429       .  A
C623        C630   1.443       .  S
C624        C625   1.413       .  A
C625        C626   1.402       .  A
C625        H628   1.084       .  S
C626        C629   1.443       .  S
C629        N631   1.157       .  T
C630        N632   1.158       .  T
C633        C634   1.408       .  A
C633        C638   1.425       .  A
C634        C635   1.403       .  A
C634        H639   1.083       .  S
C635        C636   1.416       .  A
C635        C642   1.442       .  S
C636        C637   1.394       .  A
C637        C638   1.392       .  A
C637        H640   1.085       .  S
C638        C641   1.438       .  S
C641        N643   1.156   1_455  T
C642        N644   1.157       .  T
N645        N646   1.322       .  A
N645        N651   1.316       .  A
N645       Mn674   2.218       .  S
N646        C653   1.355       .  A
N647        N649   1.316       .  A
N647        N648   1.322       .  A
N647       Mn663   2.204       .  S
N648        C654   1.353       .  A
N649        N650   1.319       .  A
N649       Mn674   2.199       .  S
N650        C654   1.352       .  A
N651        N652   1.322       .  A
N651       Mn663   2.203       .  S
N652        C653   1.353       .  A
C653        C773   1.483       .  S
C654        C737   1.471       .  S
N655        N661   1.314       .  A
N655        N656   1.320       .  A
N655       Mn685   2.208       .  S
N656        C664   1.356       .  A
N657        N658   1.319       .  A
N657        N659   1.314       .  A
N657       Mn663   2.212       .  S
N658        C665   1.358       .  A
N659        N660   1.317       .  A
N659       Mn685   2.174       .  S
N660        C665   1.348       .  A
N661        N662   1.318       .  A
N661       Mn663   2.182       .  S
N662        C664   1.349       .  A
Mn663      Cl687   2.554       .  S
C664        C758   1.478       .  S
C665        C797   1.484       .  S
N666        N667   1.321       .  A
N666        N672   1.316       .  A
N666       Mn674   2.218       .  S
N667        C675   1.356       .  A
N668        N670   1.315       .  A
N668        N669   1.322       .  A
N668       Mn686   2.209       .  S
N669        C676   1.356       .  A
N670        N671   1.317       .  A
N670       Mn674   2.191       .  S
N671        C676   1.351       .  A
N672        N673   1.320       .  A
N672       Mn686   2.192       .  S
N673        C675   1.352       .  A
Mn674      Cl687   2.533       .  S
C675        C713   1.484       .  S
C676        C746   1.483       .  S
N677        N678   1.320       .  A
N677        N683   1.315       .  A
N677       Mn685   2.202       .  S
N678        C688   1.351       .  A
N679        N680   1.325       .  A
N679        N681   1.315       .  A
N679       Mn686   2.218       .  S
N680        C689   1.358       .  A
N681        N682   1.315       .  A
N681       Mn685   2.180       .  S
N682        C689   1.349       .  A
N683        N684   1.321       .  A
N683       Mn686   2.199       .  S
N684        C688   1.352       .  A
Mn685      Cl687   2.536       .  S
Mn686      Cl687   2.556       .  S
C688        C782   1.468       .  S
C689        C722   1.482       .  S
C690        C710   1.542       .  S
C690       C1017   1.557       .  S
C690        C860   1.511       .  S
C690        C869   1.494       .  S
C691        C725   1.543       .  S
C691        C695   1.548       .  S
C691        C866   1.508       .  S
C691        C870   1.508       .  S
C692        C734   1.542       .  S
C692       C1016   1.538       .  S
C692        C859   1.517       .  S
C692        C865   1.500       .  S
C693        C761   1.537       .  S
C693        C694   1.551       .  S
C693        C864   1.484       .  S
C693        C867   1.508       .  S
C694       C1014   1.538   1_545  S
C695       C1012   1.557   1_545  S
C696        C749   1.532       .  S
C696        C699   1.507   1_554  S
C696       C1023   1.538       .  S
C696        C708   1.493       .  S
C697        C770   1.544       .  S
C697        C698   1.519   1_554  S
C697       C1024   1.550       .  S
C697        C704   1.490   1_554  S
C698        C853   1.517       .  S
C699        C851   1.511       .  S
C700        C794   1.531       .  S
C700        C702   1.538   1_545  S
C700        C703   1.496       .  S
C700        C706   1.511       .  S
C701       C1018   1.538       .  S
C701        C707   1.546   1_565  S
C702       C1019   1.550       .  S
C703        C854   1.484   1_554  S
C703       C1026   1.310   1_544  D
C704        C853   1.500       .  S
C704       C1025   1.310   1_556  D
C705        C852   1.508   1_554  S
C705        C707   1.515       .  S
C706        C854   1.508   1_554  S
C707        C785   1.537       .  S
C707        C709   1.501       .  S
C708        C851   1.494   1_554  S
C708       C1031   1.314       .  D
C709        C852   1.508   1_554  S
C709       C1030   1.314   1_545  D
C710        C711   1.406       .  A
C710        C715   1.433       .  A
C711        C712   1.404       .  A
C711        H716   1.080       .  S
C712        C713   1.413       .  A
C712        C719   1.444       .  S
C713        C714   1.397       .  A
C714        C715   1.398       .  A
C714        H717   1.085       .  S
C715        C718   1.446       .  S
C718        N720   1.158       .  T
C719        N721   1.157       .  T
C722        C723   1.401       .  A
C722        C727   1.409       .  A
C723        C724   1.407       .  A
C723        H728   1.085       .  S
C724        C725   1.427       .  A
C724        C731   1.440       .  S
C725        C726   1.404       .  A
C726        C727   1.392       .  A
C726        H729   1.068       .  S
C727        C730   1.446       .  S
C730        N732   1.157       .  T
C731        N733   1.156       .  T
C734        C735   1.415       .  A
C734        C739   1.429       .  A
C735        C736   1.404       .  A
C735        H740   1.084       .  S
C736        C737   1.405       .  A
C736        C743   1.443       .  S
C737        C738   1.392       .  A
C738        C739   1.395       .  A
C738        H741   1.087       .  S
C739        C742   1.440       .  S
C742        N744   1.157       .  T
C743        N745   1.157       .  T
C746        C747   1.402       .  A
C746        C751   1.412       .  A
C747        C748   1.403       .  A
C747        H752   1.084       .  S
C748        C749   1.424       .  A
C748        C755   1.443       .  S
C749        C750   1.406       .  A
C750        C751   1.395       .  A
C750        H753   1.080       .  S
C751        C754   1.444       .  S
C754        N756   1.157       .  T
C755        N757   1.158       .  T
C758        C759   1.396       .  A
C758        C763   1.411       .  A
C759        C760   1.397       .  A
C759        H764   1.085       .  S
C760        C761   1.432       .  A
C760        C767   1.445       .  S
C761        C762   1.403       .  A
C762        C763   1.400       .  A
C762        H765   1.075       .  S
C763        C766   1.444       .  S
C766        N768   1.157       .  T
C767        N769   1.158       .  T
C770        C771   1.409       .  A
C770        C775   1.430       .  A
C771        C772   1.404       .  A
C771        H776   1.080       .  S
C772        C773   1.409       .  A
C772        C779   1.444       .  S
C773        C774   1.398       .  A
C774        C775   1.403       .  A
C774        H777   1.085       .  S
C775        C778   1.444       .  S
C778        N780   1.158   1_554  T
C779        N781   1.157       .  T
C782        C783   1.393       .  A
C782        C787   1.404       .  A
C783        C784   1.397       .  A
C783        H788   1.086       .  S
C784        C785   1.429       .  A
C784        C791   1.443       .  S
C785        C786   1.413       .  A
C786        C787   1.402       .  A
C786        H789   1.084       .  S
C787        C790   1.443       .  S
C790        N792   1.157       .  T
C791        N793   1.158       .  T
C794        C795   1.408       .  A
C794        C799   1.425       .  A
C795        C796   1.403       .  A
C795        H800   1.083       .  S
C796        C797   1.416       .  A
C796        C803   1.442       .  S
C797        C798   1.394       .  A
C798        C799   1.392       .  A
C798        H801   1.085       .  S
C799        C802   1.438       .  S
C802        N804   1.156       .  T
C803        N805   1.157       .  T
N806        N807   1.322       .  A
N806        N812   1.316       .  A
N806       Mn835   2.218       .  S
N807        C814   1.355       .  A
N808        N810   1.316       .  A
N808        N809   1.322       .  A
N808       Mn824   2.204       .  S
N809        C815   1.353       .  A
N810        N811   1.319       .  A
N810       Mn835   2.199       .  S
N811        C815   1.352       .  A
N812        N813   1.322       .  A
N812       Mn824   2.203       .  S
N813        C814   1.353       .  A
C814        C934   1.483       .  S
C815        C898   1.471       .  S
N816        N822   1.314       .  A
N816        N817   1.320       .  A
N816       Mn846   2.208       .  S
N817        C825   1.356       .  A
N818        N819   1.319       .  A
N818        N820   1.314       .  A
N818       Mn824   2.213       .  S
N819        C826   1.358       .  A
N820        N821   1.317       .  A
N820       Mn846   2.174       .  S
N821        C826   1.348       .  A
N822        N823   1.318       .  A
N822       Mn824   2.182       .  S
N823        C825   1.349       .  A
Mn824      Cl848   2.554       .  S
C825        C919   1.478       .  S
C826        C958   1.484       .  S
N827        N828   1.321       .  A
N827        N833   1.316       .  A
N827       Mn835   2.218       .  S
N828        C836   1.356       .  A
N829        N831   1.315       .  A
N829        N830   1.322       .  A
N829       Mn847   2.209       .  S
N830        C837   1.356       .  A
N831        N832   1.317       .  A
N831       Mn835   2.191       .  S
N832        C837   1.351       .  A
N833        N834   1.320       .  A
N833       Mn847   2.192       .  S
N834        C836   1.352       .  A
Mn835      Cl848   2.534       .  S
C836        C874   1.484       .  S
C837        C907   1.483       .  S
N838        N839   1.320       .  A
N838        N844   1.315       .  A
N838       Mn846   2.202       .  S
N839        C849   1.351       .  A
N840        N841   1.325       .  A
N840        N842   1.315       .  A
N840       Mn847   2.217       .  S
N841        C850   1.357       .  A
N842        N843   1.315       .  A
N842       Mn846   2.180       .  S
N843        C850   1.349       .  A
N844        N845   1.321       .  A
N844       Mn847   2.199       .  S
N845        C849   1.352       .  A
Mn846      Cl848   2.536       .  S
Mn847      Cl848   2.556       .  S
C849        C943   1.468       .  S
C850        C883   1.482       .  S
C851        C871   1.542       .  S
C851       C1178   1.557       .  S
C852        C886   1.543       .  S
C852        C856   1.548       .  S
C853        C895   1.542       .  S
C853       C1177   1.538       .  S
C854        C922   1.537       .  S
C854        C855   1.551       .  S
C855       C1175   1.538   1_545  S
C856       C1173   1.557   1_545  S
C857        C910   1.532       .  S
C857        C860   1.507       .  S
C857       C1184   1.538       .  S
C857        C869   1.493       .  S
C858        C931   1.544       .  S
C858        C859   1.519       .  S
C858       C1185   1.550       .  S
C858        C865   1.490       .  S
C861        C955   1.531       .  S
C861        C863   1.538   1_545  S
C861        C864   1.496       .  S
C861        C867   1.511       .  S
C862       C1179   1.538       .  S
C862        C868   1.546   1_565  S
C863       C1180   1.550       .  S
C864       C1187   1.310   1_545  D
C865       C1186   1.310       .  D
C866        C868   1.515       .  S
C868        C946   1.537       .  S
C868        C870   1.501       .  S
C869       C1192   1.314       .  D
C870       C1191   1.314   1_545  D
C871        C872   1.406       .  A
C871        C876   1.433       .  A
C872        C873   1.404       .  A
C872        H877   1.080       .  S
C873        C874   1.413       .  A
C873        C880   1.444       .  S
C874        C875   1.397       .  A
C875        C876   1.398       .  A
C875        H878   1.085       .  S
C876        C879   1.446       .  S
C879        N881   1.158       .  T
C880        N882   1.157       .  T
C883        C884   1.401       .  A
C883        C888   1.409       .  A
C884        C885   1.407       .  A
C884        H889   1.085       .  S
C885        C886   1.427       .  A
C885        C892   1.440       .  S
C886        C887   1.404       .  A
C887        C888   1.392       .  A
C887        H890   1.068       .  S
C888        C891   1.446       .  S
C891        N893   1.157       .  T
C892        N894   1.156       .  T
C895        C896   1.415       .  A
C895        C900   1.429       .  A
C896        C897   1.404       .  A
C896        H901   1.084       .  S
C897        C898   1.405       .  A
C897        C904   1.443       .  S
C898        C899   1.392       .  A
C899        C900   1.395       .  A
C899        H902   1.087       .  S
C900        C903   1.440       .  S
C903        N905   1.157       .  T
C904        N906   1.157       .  T
C907        C908   1.402       .  A
C907        C912   1.412       .  A
C908        C909   1.403       .  A
C908        H913   1.084       .  S
C909        C910   1.424       .  A
C909        C916   1.443       .  S
C910        C911   1.406       .  A
C911        C912   1.395       .  A
C911        H914   1.080       .  S
C912        C915   1.444       .  S
C915        N917   1.157       .  T
C916        N918   1.158       .  T
C919        C920   1.396       .  A
C919        C924   1.411       .  A
C920        C921   1.397       .  A
C920        H925   1.085       .  S
C921        C922   1.432       .  A
C921        C928   1.445       .  S
C922        C923   1.403       .  A
C923        C924   1.400       .  A
C923        H926   1.075       .  S
C924        C927   1.444       .  S
C927        N929   1.157       .  T
C928        N930   1.158       .  T
C931        C932   1.409       .  A
C931        C936   1.430       .  A
C932        C933   1.404       .  A
C932        H937   1.080       .  S
C933        C934   1.409       .  A
C933        C940   1.444       .  S
C934        C935   1.398       .  A
C935        C936   1.403       .  A
C935        H938   1.085       .  S
C936        C939   1.444       .  S
C939        N941   1.158       .  T
C940        N942   1.157       .  T
C943        C944   1.393       .  A
C943        C948   1.404       .  A
C944        C945   1.397       .  A
C944        H949   1.086       .  S
C945        C946   1.429       .  A
C945        C952   1.443       .  S
C946        C947   1.413       .  A
C947        C948   1.402       .  A
C947        H950   1.084       .  S
C948        C951   1.443       .  S
C951        N953   1.157       .  T
C952        N954   1.158       .  T
C955        C956   1.408       .  A
C955        C960   1.425       .  A
C956        C957   1.403       .  A
C956        H961   1.083       .  S
C957        C958   1.416       .  A
C957        C964   1.442       .  S
C958        C959   1.394       .  A
C959        C960   1.392       .  A
C959        H962   1.085       .  S
C960        C963   1.438       .  S
C963        N965   1.156       .  T
C964        N966   1.157       .  T
N967        N968   1.322       .  A
N967        N973   1.316       .  A
N967       Mn996   2.218       .  S
N968        C975   1.355       .  A
N969        N971   1.316       .  A
N969        N970   1.322       .  A
N969       Mn985   2.204       .  S
N970        C976   1.353       .  A
N971        N972   1.319       .  A
N971       Mn996   2.199       .  S
N972        C976   1.352       .  A
N973        N974   1.322       .  A
N973       Mn985   2.203       .  S
N974        C975   1.353       .  A
C975       C1095   1.483       .  S
C976       C1059   1.471       .  S
N977        N983   1.314       .  A
N977        N978   1.320       .  A
N977      Mn1007   2.208       .  S
N978        C986   1.356       .  A
N979        N980   1.319       .  A
N979        N981   1.314       .  A
N979       Mn985   2.213       .  S
N980        C987   1.358       .  A
N981        N982   1.317       .  A
N981      Mn1007   2.174       .  S
N982        C987   1.348       .  A
N983        N984   1.318       .  A
N983       Mn985   2.182       .  S
N984        C986   1.349       .  A
Mn985     Cl1009   2.554       .  S
C986       C1080   1.478       .  S
C987       C1119   1.484       .  S
N988        N989   1.321       .  A
N988        N994   1.316       .  A
N988       Mn996   2.218       .  S
N989        C997   1.356       .  A
N990        N992   1.315       .  A
N990        N991   1.322       .  A
N990      Mn1008   2.209       .  S
N991        C998   1.356       .  A
N992        N993   1.317       .  A
N992       Mn996   2.191       .  S
N993        C998   1.351       .  A
N994        N995   1.320       .  A
N994      Mn1008   2.192       .  S
N995        C997   1.352       .  A
Mn996     Cl1009   2.533       .  S
C997       C1035   1.484       .  S
C998       C1068   1.483       .  S
N999       N1000   1.320       .  A
N999       N1005   1.315       .  A
N999      Mn1007   2.202       .  S
N1000      C1010   1.351       .  A
N1001      N1002   1.325       .  A
N1001      N1003   1.315       .  A
N1001     Mn1008   2.218       .  S
N1002      C1011   1.358       .  A
N1003      N1004   1.315       .  A
N1003     Mn1007   2.180       .  S
N1004      C1011   1.349       .  A
N1005      N1006   1.321       .  A
N1005     Mn1008   2.199       .  S
N1006      C1010   1.352       .  A
Mn1007    Cl1009   2.536       .  S
Mn1008    Cl1009   2.556       .  S
C1010      C1104   1.468       .  S
C1011      C1044   1.482       .  S
C1012      C1032   1.542       .  S
C1012      C1182   1.511       .  S
C1012      C1191   1.494       .  S
C1013      C1047   1.543       .  S
C1013      C1017   1.548       .  S
C1013      C1188   1.508       .  S
C1013      C1192   1.508       .  S
C1014      C1056   1.542       .  S
C1014      C1181   1.517       .  S
C1014      C1187   1.500       .  S
C1015      C1083   1.537       .  S
C1015      C1016   1.551       .  S
C1015      C1186   1.484       .  S
C1015      C1189   1.508       .  S
C1018      C1071   1.532       .  S
C1018      C1021   1.507   1_554  S
C1018      C1030   1.493       .  S
C1019      C1092   1.544       .  S
C1019      C1020   1.519   1_554  S
C1019      C1026   1.490   1_554  S
C1020      C1175   1.517       .  S
C1021      C1173   1.511       .  S
C1022      C1116   1.531       .  S
C1022      C1024   1.538       .  S
C1022      C1025   1.496       .  S
C1022      C1028   1.511       .  S
C1023      C1029   1.546       .  S
C1025      C1176   1.484   1_554  S
C1026      C1175   1.500       .  S
C1027      C1174   1.508   1_554  S
C1027      C1029   1.515       .  S
C1028      C1176   1.508   1_554  S
C1029      C1107   1.537       .  S
C1029      C1031   1.501       .  S
C1030      C1173   1.494   1_554  S
C1031      C1174   1.508   1_554  S
C1032      C1033   1.406       .  A
C1032      C1037   1.433       .  A
C1033      C1034   1.404       .  A
C1033      H1038   1.080       .  S
C1034      C1035   1.413       .  A
C1034      C1041   1.444       .  S
C1035      C1036   1.397       .  A
C1036      C1037   1.398       .  A
C1036      H1039   1.085       .  S
C1037      C1040   1.446       .  S
C1040      N1042   1.158       .  T
C1041      N1043   1.157       .  T
C1044      C1045   1.401       .  A
C1044      C1049   1.409       .  A
C1045      C1046   1.407       .  A
C1045      H1050   1.085       .  S
C1046      C1047   1.427       .  A
C1046      C1053   1.440       .  S
C1047      C1048   1.404       .  A
C1048      C1049   1.392       .  A
C1048      H1051   1.068       .  S
C1049      C1052   1.446       .  S
C1052      N1054   1.157       .  T
C1053      N1055   1.156       .  T
C1056      C1057   1.415       .  A
C1056      C1061   1.429       .  A
C1057      C1058   1.404       .  A
C1057      H1062   1.084       .  S
C1058      C1059   1.405       .  A
C1058      C1065   1.443       .  S
C1059      C1060   1.392       .  A
C1060      C1061   1.395       .  A
C1060      H1063   1.087       .  S
C1061      C1064   1.440       .  S
C1064      N1066   1.157   1_565  T
C1065      N1067   1.157       .  T
C1068      C1069   1.402       .  A
C1068      C1073   1.412       .  A
C1069      C1070   1.403       .  A
C1069      H1074   1.084       .  S
C1070      C1071   1.424       .  A
C1070      C1077   1.443       .  S
C1071      C1072   1.406       .  A
C1072      C1073   1.395       .  A
C1072      H1075   1.080       .  S
C1073      C1076   1.444       .  S
C1076      N1078   1.157       .  T
C1077      N1079   1.158       .  T
C1080      C1081   1.396       .  A
C1080      C1085   1.411       .  A
C1081      C1082   1.397       .  A
C1081      H1086   1.085       .  S
C1082      C1083   1.432       .  A
C1082      C1089   1.445       .  S
C1083      C1084   1.403       .  A
C1084      C1085   1.400       .  A
C1084      H1087   1.075       .  S
C1085      C1088   1.444       .  S
C1088      N1090   1.157       .  T
C1089      N1091   1.158       .  T
C1092      C1093   1.409       .  A
C1092      C1097   1.430       .  A
C1093      C1094   1.404       .  A
C1093      H1098   1.080       .  S
C1094      C1095   1.409       .  A
C1094      C1101   1.444       .  S
C1095      C1096   1.398       .  A
C1096      C1097   1.403       .  A
C1096      H1099   1.085       .  S
C1097      C1100   1.444       .  S
C1100      N1102   1.158   1_554  T
C1101      N1103   1.157       .  T
C1104      C1105   1.393       .  A
C1104      C1109   1.404       .  A
C1105      C1106   1.397       .  A
C1105      H1110   1.086       .  S
C1106      C1107   1.429       .  A
C1106      C1113   1.443       .  S
C1107      C1108   1.413       .  A
C1108      C1109   1.402       .  A
C1108      H1111   1.084       .  S
C1109      C1112   1.443       .  S
C1112      N1114   1.157       .  T
C1113      N1115   1.158       .  T
C1116      C1117   1.408       .  A
C1116      C1121   1.425       .  A
C1117      C1118   1.403       .  A
C1117      H1122   1.083       .  S
C1118      C1119   1.416       .  A
C1118      C1125   1.442       .  S
C1119      C1120   1.394       .  A
C1120      C1121   1.392       .  A
C1120      H1123   1.085       .  S
C1121      C1124   1.438       .  S
C1124      N1126   1.156       .  T
C1125      N1127   1.157       .  T
N1128      N1129   1.322       .  A
N1128      N1134   1.316       .  A
N1128     Mn1157   2.218       .  S
N1129      C1136   1.355       .  A
N1130      N1132   1.316       .  A
N1130      N1131   1.322       .  A
N1130     Mn1146   2.204       .  S
N1131      C1137   1.353       .  A
N1132      N1133   1.319       .  A
N1132     Mn1157   2.199       .  S
N1133      C1137   1.352       .  A
N1134      N1135   1.322       .  A
N1134     Mn1146   2.203       .  S
N1135      C1136   1.353       .  A
C1136      C1256   1.483       .  S
C1137      C1220   1.471       .  S
N1138      N1144   1.314       .  A
N1138      N1139   1.320       .  A
N1138     Mn1168   2.208       .  S
N1139      C1147   1.356       .  A
N1140      N1141   1.319       .  A
N1140      N1142   1.314       .  A
N1140     Mn1146   2.213       .  S
N1141      C1148   1.358       .  A
N1142      N1143   1.317       .  A
N1142     Mn1168   2.174       .  S
N1143      C1148   1.348       .  A
N1144      N1145   1.318       .  A
N1144     Mn1146   2.182       .  S
N1145      C1147   1.349       .  A
Mn1146    Cl1170   2.554       .  S
C1147      C1241   1.478       .  S
C1148      C1280   1.484       .  S
N1149      N1150   1.321       .  A
N1149      N1155   1.316       .  A
N1149     Mn1157   2.218       .  S
N1150      C1158   1.356       .  A
N1151      N1153   1.315       .  A
N1151      N1152   1.322       .  A
N1151     Mn1169   2.209       .  S
N1152      C1159   1.356       .  A
N1153      N1154   1.317       .  A
N1153     Mn1157   2.191       .  S
N1154      C1159   1.351       .  A
N1155      N1156   1.320       .  A
N1155     Mn1169   2.192       .  S
N1156      C1158   1.352       .  A
Mn1157    Cl1170   2.534       .  S
C1158      C1196   1.484       .  S
C1159      C1229   1.483       .  S
N1160      N1161   1.320       .  A
N1160      N1166   1.315       .  A
N1160     Mn1168   2.202       .  S
N1161      C1171   1.351       .  A
N1162      N1163   1.325       .  A
N1162      N1164   1.315       .  A
N1162     Mn1169   2.218       .  S
N1163      C1172   1.358       .  A
N1164      N1165   1.315       .  A
N1164     Mn1168   2.180       .  S
N1165      C1172   1.349       .  A
N1166      N1167   1.321       .  A
N1166     Mn1169   2.199       .  S
N1167      C1171   1.352       .  A
Mn1168    Cl1170   2.536       .  S
Mn1169    Cl1170   2.556       .  S
C1171      C1265   1.468       .  S
C1172      C1205   1.482       .  S
C1173      C1193   1.542       .  S
C1174      C1208   1.543       .  S
C1174      C1178   1.548       .  S
C1175      C1217   1.542       .  S
C1176      C1244   1.537       .  S
C1176      C1177   1.551       .  S
C1179      C1232   1.532       .  S
C1179      C1182   1.507       .  S
C1179      C1191   1.493       .  S
C1180      C1253   1.544       .  S
C1180      C1181   1.519       .  S
C1180      C1187   1.490       .  S
C1183      C1277   1.531       .  S
C1183      C1185   1.538       .  S
C1183      C1186   1.496       .  S
C1183      C1189   1.511       .  S
C1184      C1190   1.546       .  S
C1188      C1190   1.515       .  S
C1190      C1268   1.537       .  S
C1190      C1192   1.501       .  S
C1193      C1194   1.406       .  A
C1193      C1198   1.433       .  A
C1194      C1195   1.404       .  A
C1194      H1199   1.080       .  S
C1195      C1196   1.413       .  A
C1195      C1202   1.444       .  S
C1196      C1197   1.397       .  A
C1197      C1198   1.398       .  A
C1197      H1200   1.085       .  S
C1198      C1201   1.446       .  S
C1201      N1203   1.158       .  T
C1202      N1204   1.157       .  T
C1205      C1206   1.401       .  A
C1205      C1210   1.409       .  A
C1206      C1207   1.407       .  A
C1206      H1211   1.085       .  S
C1207      C1208   1.427       .  A
C1207      C1214   1.440       .  S
C1208      C1209   1.404       .  A
C1209      C1210   1.392       .  A
C1209      H1212   1.068       .  S
C1210      C1213   1.446       .  S
C1213      N1215   1.157       .  T
C1214      N1216   1.156       .  T
C1217      C1218   1.415       .  A
C1217      C1222   1.429       .  A
C1218      C1219   1.404       .  A
C1218      H1223   1.084       .  S
C1219      C1220   1.405       .  A
C1219      C1226   1.443       .  S
C1220      C1221   1.392       .  A
C1221      C1222   1.395       .  A
C1221      H1224   1.087       .  S
C1222      C1225   1.440       .  S
C1225      N1227   1.157   1_565  T
C1226      N1228   1.157       .  T
C1229      C1230   1.402       .  A
C1229      C1234   1.412       .  A
C1230      C1231   1.403       .  A
C1230      H1235   1.084       .  S
C1231      C1232   1.424       .  A
C1231      C1238   1.443       .  S
C1232      C1233   1.406       .  A
C1233      C1234   1.395       .  A
C1233      H1236   1.080       .  S
C1234      C1237   1.444       .  S
C1237      N1239   1.157       .  T
C1238      N1240   1.158       .  T
C1241      C1242   1.396       .  A
C1241      C1246   1.411       .  A
C1242      C1243   1.397       .  A
C1242      H1247   1.085       .  S
C1243      C1244   1.432       .  A
C1243      C1250   1.445       .  S
C1244      C1245   1.403       .  A
C1245      C1246   1.400       .  A
C1245      H1248   1.075       .  S
C1246      C1249   1.444       .  S
C1249      N1251   1.157       .  T
C1250      N1252   1.158       .  T
C1253      C1254   1.409       .  A
C1253      C1258   1.430       .  A
C1254      C1255   1.404       .  A
C1254      H1259   1.080       .  S
C1255      C1256   1.409       .  A
C1255      C1262   1.444       .  S
C1256      C1257   1.398       .  A
C1257      C1258   1.403       .  A
C1257      H1260   1.085       .  S
C1258      C1261   1.444       .  S
C1261      N1263   1.158       .  T
C1262      N1264   1.157       .  T
C1265      C1266   1.393       .  A
C1265      C1270   1.404       .  A
C1266      C1267   1.397       .  A
C1266      H1271   1.086       .  S
C1267      C1268   1.429       .  A
C1267      C1274   1.443       .  S
C1268      C1269   1.413       .  A
C1269      C1270   1.402       .  A
C1269      H1272   1.084       .  S
C1270      C1273   1.443       .  S
C1273      N1275   1.157       .  T
C1274      N1276   1.158       .  T
C1277      C1278   1.408       .  A
C1277      C1282   1.425       .  A
C1278      C1279   1.403       .  A
C1278      H1283   1.083       .  S
C1279      C1280   1.416       .  A
C1279      C1286   1.442       .  S
C1280      C1281   1.394       .  A
C1281      C1282   1.392       .  A
C1281      H1284   1.085       .  S
C1282      C1285   1.438       .  S
C1285      N1287   1.156       .  T
C1286      N1288   1.157       .  T
