geometry optimzed in LAMMPS
_audit_creation_date              2020-11-30 
_audit_creation_method            'lammps2cif' 
_symmetry_space_group_name_H-M    'P1' 
_symmetry_Int_Tables_number       1 
_symmetry_cell_setting            triclinic 
loop_ 
_symmetry_equiv_pos_as_xyz 
  x,y,z 
_cell_length_a                    38.598368520717855 
_cell_length_b                    38.650978693214164 
_cell_length_c                    38.63782744579182 
_cell_angle_alpha                 89.6524198900645 
_cell_angle_beta                  90.3951791474742 
_cell_angle_gamma                 89.63183442590054 
loop_ 
_atom_site_label 
_atom_site_type_symbol 
_atom_site_fract_x 
_atom_site_fract_y 
_atom_site_fract_z 
_atom_site_charge 
C1          C  0.36773169  0.36651229  0.49652861     0.03530
C2          C  0.37683543  0.33122911  0.49343101    -0.12620
C3          C  0.35128490  0.30560827  0.49476691     0.01030
C4          C  0.31658504  0.31527597  0.99841027    -0.11140
C5          C  0.30711538  0.35010295  0.00082819     0.03530
C6          C  0.33256355  0.37569789  0.99961099    -0.10560
H7          H  0.40366605  0.32353628  0.49030915     0.09120
H8          H  0.29673676  0.29554967  0.99925912     0.06650
H9          H  0.32476467  0.40259156  0.00156408     0.06500
C10         C  0.36583567  0.09789964  0.50055800     0.03530
C11         C  0.33094671  0.08902786  0.50634992    -0.12620
C12         C  0.30524798  0.11480093  0.50755465     0.01030
C13         C  0.31434051  0.14947317  0.50267466    -0.11140
C14         C  0.34875683  0.15865801  0.49669872     0.03530
C15         C  0.37450621  0.13301295  0.49604208    -0.10560
H16         H  0.32364035  0.06225310  0.51010580     0.09120
H17         H  0.29448146  0.16943750  0.50332883     0.06650
H18         H  0.40110576  0.14054616  0.49159088     0.06500
C19         C  0.09839405  0.09768390  0.50403578     0.03530
C20         C  0.13306742  0.08790404  0.51098022    -0.12620
C21         C  0.15888400  0.11299531  0.51397954     0.01030
C22         C  0.15024361  0.14788393  0.50922227    -0.11140
C23         C  0.11634478  0.15810322  0.50070957     0.03470
C24         C  0.09024333  0.13304667  0.49900574    -0.10560
H25         H  0.14011165  0.06090466  0.51434040     0.09120
H26         H  0.17042612  0.16721155  0.51091516     0.06650
H27         H  0.06396735  0.14105324  0.49279550     0.06500
C28         C  0.09934206  0.36655034  0.50086668     0.03530
C29         C  0.13429650  0.37615697  0.50470394    -0.12620
C30         C  0.16040957  0.35100231  0.50490262     0.01030
C31         C  0.15181388  0.31610128  0.50246234    -0.11140
C32         C  0.11729792  0.30575243  0.49838054     0.03530
C33         C  0.09107604  0.33116308  0.49728420    -0.10560
H34         H  0.14148022  0.40314094  0.50655129     0.09120
H35         H  0.17241473  0.29687891  0.50290832     0.06650
H36         H  0.06445707  0.32334303  0.49330656     0.06500
C37         C  0.36569595  0.47859612  0.38338208     0.03530
C38         C  0.37171070  0.47764749  0.34726317    -0.12620
C39         C  0.34528339  0.46640318  0.32424648     0.01030
C40         C  0.31534912  0.45236613  0.33937062    -0.11140
C41         C  0.30643496  0.46058701  0.37320412     0.03530
C42         C  0.33174075  0.47347112  0.39536609    -0.10560
H43         H  0.39664791  0.48566203  0.33774980     0.09120
H44         H  0.29675841  0.43817237  0.32419685     0.06650
H45         H  0.32499728  0.47834139  0.42208278     0.06500
C46         C  0.09902375  0.48151880  0.38367221     0.03530
C47         C  0.13360695  0.47418498  0.39337714    -0.12620
C48         C  0.16001319  0.47496674  0.36877282     0.01030
C49         C  0.15197438  0.48248723  0.33421862    -0.11140
C50         C  0.11791022  0.49051456  0.32388408     0.03530
C51         C  0.09136576  0.48940732  0.34864570    -0.10560
H52         H  0.14028987  0.46859820  0.42012511     0.09120
H53         H  0.17264742  0.48278326  0.31535745     0.06650
H54         H  0.06506138  0.49564990  0.34076473     0.06500
C55         C  0.09811270  0.49197206  0.11515514     0.03530
C56         C  0.13298508  0.49193241  0.10479986    -0.12620
C57         C  0.15956111  0.49418779  0.12923983     0.01030
C58         C  0.15154401  0.49668773  0.16433669    -0.11140
C59         C  0.11696030  0.49823982  0.17558986     0.03530
C60         C  0.09024645  0.49629325  0.15057456    -0.10560
H61         H  0.13976997  0.48980595  0.07772367     0.09120
H62         H  0.17264623  0.49746036  0.18297060     0.06650
H63         H  0.06349730  0.49831372  0.15854820     0.06500
C64         C  0.36578300  0.48171775  0.11299055     0.03530
C65         C  0.37236026  0.47820698  0.14896300    -0.12620
C66         C  0.34603988  0.48565404  0.17310838     0.01030
C67         C  0.31380621  0.49746287  0.16016672    -0.11140
C68         C  0.30569146  0.49580054  0.12509652     0.03530
C69         C  0.33162481  0.48821566  0.10145170    -0.10560
H70         H  0.39757266  0.46940068  0.15780969     0.09120
H71         H  0.29350342  0.50561099  0.17758892     0.06650
H72         H  0.32510337  0.48817498  0.07413216     0.06500
C73         C  0.48243658  0.09954240  0.38370137     0.03530
C74         C  0.48375743  0.13476877  0.39278378    -0.12620
C75         C  0.48305691  0.16046778  0.36708220     0.01030
C76         C  0.48212877  0.15104770  0.33219294    -0.11140
C77         C  0.48129888  0.11618300  0.32281841     0.03530
C78         C  0.48138547  0.09050266  0.34843929    -0.10560
H79         H  0.48507932  0.14239397  0.41969877     0.09120
H80         H  0.48218828  0.17091699  0.31224966     0.06650
H81         H  0.48070401  0.06361413  0.34070424     0.06500
C82         C  0.48486788  0.36787915  0.38302740     0.03530
C83         C  0.48569412  0.33252586  0.39222847    -0.12620
C84         C  0.48669322  0.30714368  0.36658856     0.01030
C85         C  0.48592793  0.31683758  0.33170890    -0.11140
C86         C  0.48457861  0.35174340  0.32219174     0.03530
C87         C  0.48454577  0.37726105  0.34771478    -0.10560
H88         H  0.48601723  0.32457356  0.41916809     0.09120
H89         H  0.48642509  0.29711158  0.31186287     0.06650
H90         H  0.48396477  0.40422757  0.33989107     0.06500
C91         C  0.48335237  0.09682964  0.11542623     0.03530
C92         C  0.48347863  0.08685445  0.15061957    -0.12620
C93         C  0.48552428  0.11184202  0.17657305     0.01030
C94         C  0.48685359  0.14685825  0.16764727    -0.11140
C95         C  0.48616034  0.15727435  0.13297674     0.03530
C96         C  0.48437584  0.13235560  0.10683257    -0.10560
H97         H  0.48235560  0.05980277  0.15802273     0.09120
H98         H  0.48800810  0.16618886  0.18785900     0.06650
H99         H  0.48386925  0.14077372  0.08003633     0.06500
C100        C  0.48516095  0.36539659  0.11462551     0.03530
C101        C  0.48580184  0.37497906  0.14977876    -0.12620
C102        C  0.48702202  0.34970067  0.17579968     0.01030
C103        C  0.48685263  0.31474331  0.16706206    -0.11140
C104        C  0.48572032  0.30469981  0.13242224     0.03530
C105        C  0.48532063  0.32991378  0.10613478    -0.10560
H106        H  0.48559508  0.40198555  0.15714405     0.09120
H107        H  0.48718006  0.29522451  0.18735959     0.06650
H108        H  0.48447371  0.32178861  0.07935558     0.06500
O109        O  0.42676922  0.38362343  0.49760453    -0.79730
O110        O  0.42500013  0.08075270  0.49923258    -0.81280
O111        O  0.38487879  0.48045183  0.05496929    -0.78300
O112        O  0.38515079  0.48305912  0.44126998    -0.76680
O113        O  0.42581318  0.48311951  0.39856984    -0.78480
O114        O  0.42570268  0.48006325  0.09807725    -0.79410
O115        O  0.38346068  0.03885347  0.49925582    -0.80730
O116        O  0.38472667  0.42554016  0.49741291    -0.81020
Eu117      Eu  0.41295385  0.48236353  0.49838605     2.39200
O118        O  0.44724861  0.01819864  0.46340529    -0.88530
O119        O  0.44770643  0.44665544  0.03392766    -0.92140
C120        C  0.39478376  0.39359414  0.49714809     1.02550
C121        C  0.39313304  0.07077699  0.49952791     1.02370
C122        C  0.39399795  0.48006390  0.08717749     1.02320
C123        C  0.39412022  0.48263594  0.40914945     1.00170
H124        H  0.43264287  0.03147127  0.04854993     0.29920
O125        O  0.44729218  0.01731765  0.03415345    -1.00920
H126        H  0.43377661  0.43333999  0.44874540     0.29960
O127        O  0.44811486  0.44764719  0.46331159    -1.03460
O128        O  0.03911782  0.08111334  0.50123305    -0.80690
O129        O  0.04006756  0.38344020  0.49911194    -0.80230
O130        O  0.48205163  0.03821213  0.09764948    -0.78660
O131        O  0.48228904  0.04053142  0.40069687    -0.82000
O132        O  0.48376920  0.42672835  0.40016315    -0.79860
O133        O  0.48408698  0.42432672  0.09710184    -0.78510
O134        O  0.07999122  0.48632235  0.05670190    -0.80030
O135        O  0.08108144  0.48166241  0.44244792    -0.81950
O136        O  0.03875878  0.48608846  0.09887093    -0.78690
O137        O  0.03955896  0.48284857  0.39995200    -0.81370
O138        O  0.48278030  0.08059623  0.05613929    -0.77100
O139        O  0.48369030  0.38270102  0.05535071    -0.77130
O140        O  0.48440263  0.38461613  0.44198003    -0.76780
O141        O  0.48224787  0.08192972  0.44269212    -0.80270
O142        O  0.08097433  0.03899851  0.50091448    -0.79700
O143        O  0.08140867  0.42547850  0.50047630    -0.78030
Eu144      Eu  0.48226150  0.05267815  0.49918425     2.39770
Eu145      Eu  0.48333871  0.41227384  0.49887137     2.39570
Eu146      Eu  0.48245447  0.48159808  0.06938584     2.38400
Eu147      Eu  0.48266097  0.48336449  0.42837797     2.39880
Eu148      Eu  0.05265952  0.48239230  0.49929768     2.39790
O149        O  0.01791071  0.44773762  0.46374007    -0.92440
O150        O  0.01703538  0.01672565  0.03414485    -0.91330
C151        C  0.07107173  0.07095015  0.50183409     1.02730
C152        C  0.07185886  0.39350187  0.50002092     1.01450
C153        C  0.48259647  0.07022816  0.08797395     1.00840
C154        C  0.48229180  0.07230238  0.41076234     1.02850
C155        C  0.48435025  0.39478350  0.41010107     1.01770
C156        C  0.48419468  0.39246148  0.08725151     1.00610
C157        C  0.07046109  0.48786143  0.08865205     1.00670
C158        C  0.07144282  0.48198736  0.41033398     1.03290
H159        H  0.03314354  0.43259385  0.04927643     0.30660
O160        O  0.01840310  0.44685210  0.03469379    -1.04600
H161        H  0.03231177  0.03271483  0.44971737     0.32710
O162        O  0.01778382  0.01818030  0.46384918    -1.07170
C163        C  0.01453725  0.24982008  0.11713698    -0.11860
C164        C  0.48371117  0.26748574  0.12466498     0.05140
C165        C  0.45317514  0.24867413  0.13133168    -0.07150
C166        C  0.45470337  0.21243441  0.13094449    -0.07890
C167        C  0.48587587  0.19464226  0.12509469    -0.02450
C168        C  0.01641773  0.21341341  0.11747048     0.04370
N169        N  0.04961047  0.19669537  0.11194543     0.66880
H170        H  0.03786354  0.26475370  0.11339514     0.15780
H171        H  0.43167881  0.19774011  0.13702366     0.15490
N172        N  0.42119785  0.26570119  0.14068516     0.74580
O173        O  0.07523185  0.21420378  0.10198125    -0.38870
O174        O  0.05419066  0.16486913  0.11799334    -0.38810
O175        O  0.41462332  0.29624154  0.13076288    -0.39520
O176        O  0.39842281  0.24954029  0.15749876    -0.39580
C177        C  0.01642189  0.36177232  0.26835112    -0.11860
C178        C  0.48440057  0.36075823  0.28515406     0.05140
C179        C  0.45332931  0.36128014  0.26560091    -0.07150
C180        C  0.45538743  0.36066739  0.22939205    -0.07890
C181        C  0.48742343  0.35911855  0.21259701    -0.02450
C182        C  0.01863198  0.36062343  0.23208767     0.04370
N183        N  0.05241263  0.35898633  0.21609296     0.66880
H184        H  0.03988533  0.36116015  0.28391320     0.15780
H185        H  0.43179690  0.35946014  0.21406974     0.15490
N186        N  0.41981967  0.36030723  0.28188209     0.74580
O187        O  0.07936904  0.35558043  0.23454633    -0.38870
O188        O  0.05594158  0.36241547  0.18380809    -0.38810
O189        O  0.41524862  0.37354849  0.31129491    -0.39520
O190        O  0.39392510  0.34855327  0.26574027    -0.39580
C191        C  0.01357096  0.10481245  0.26952115    -0.11860
C192        C  0.48134239  0.10711318  0.28589136     0.05140
C193        C  0.45040012  0.10400643  0.26621260    -0.07150
C194        C  0.45295251  0.10165038  0.23004302    -0.07890
C195        C  0.48515170  0.10242637  0.21352944    -0.02450
C196        C  0.01599417  0.10222778  0.23341826     0.04370
N197        N  0.04964318  0.10094140  0.21740826     0.66880
H198        H  0.03699566  0.10634283  0.28505566     0.15780
H199        H  0.42957229  0.10188290  0.21434058     0.15490
N200        N  0.41645589  0.10447475  0.28181606     0.74580
O201        O  0.07615858  0.11103896  0.23369044    -0.38870
O202        O  0.05361470  0.08666605  0.18838842    -0.38810
O203        O  0.41156938  0.11720541  0.31140026    -0.39520
O204        O  0.39064742  0.09299605  0.26533254    -0.39580
C205        C  0.01654699  0.21421881  0.37085621    -0.11860
C206        C  0.48485044  0.19746952  0.37587053     0.05140
C207        C  0.45474090  0.21714499  0.38307558    -0.07150
C208        C  0.45691728  0.25339180  0.38282679    -0.07890
C209        C  0.48814474  0.27009176  0.37551824    -0.02450
C210        C  0.01873039  0.25044280  0.37069135     0.04370
N211        N  0.05160548  0.26671587  0.36414878     0.66880
H212        H  0.03942977  0.19881832  0.36548472     0.15780
H213        H  0.43369026  0.26881794  0.38647295     0.15490
N214        N  0.42156110  0.20111716  0.38827321     0.74580
O215        O  0.07546851  0.25026751  0.34910465    -0.38870
O216        O  0.05804345  0.29644945  0.37581623    -0.38810
O217        O  0.41934546  0.17230089  0.40359246    -0.39520
O218        O  0.39402866  0.21725988  0.38046823    -0.39580
C219        C  0.25148257  0.46570719  0.11190165    -0.11860
C220        C  0.26883782  0.49735722  0.11487003     0.05140
C221        C  0.24958742  0.02847798  0.11701614    -0.07150
C222        C  0.21329864  0.02674469  0.11886762    -0.07890
C223        C  0.19616599  0.49484655  0.11859227    -0.02450
C224        C  0.21526678  0.46400205  0.11381724     0.04370
N225        N  0.19871431  0.43076012  0.11382533     0.66880
H226        H  0.26643133  0.44190423  0.11063560     0.15780
H227        H  0.19829591  0.05026108  0.12228339     0.15490
N228        N  0.26651285  0.06153852  0.11917256     0.74580
O229        O  0.17090683  0.42620423  0.09714591    -0.38870
O230        O  0.21334508  0.40508168  0.12818146    -0.38810
O231        O  0.29600595  0.06594826  0.10597785    -0.39520
O232        O  0.25103767  0.08719492  0.13215432    -0.39580
C233        C  0.08593065  0.48137185  0.26814716    -0.11860
C234        C  0.11097464  0.49976709  0.28695789     0.05140
C235        C  0.13268401  0.52308735  0.26904898    -0.07150
C236        C  0.13201632  0.52375236  0.23277738    -0.07890
C237        C  0.11026275  0.50185189  0.21358375    -0.02450
C238        C  0.08528348  0.48216443  0.23171774     0.04370
N239        N  0.06060495  0.46107958  0.21398201     0.66880
H240        H  0.06863058  0.46400242  0.28163695     0.15780
H241        H  0.14949921  0.54093537  0.21930287     0.15490
N242        N  0.15613861  0.54552529  0.28724140     0.74580
O243        O  0.07073961  0.43668184  0.19493703    -0.38870
O244        O  0.02872955  0.46434665  0.22040410    -0.38810
O245        O  0.18452450  0.55416541  0.27373200    -0.39520
O246        O  0.14752769  0.05878082  0.31572752    -0.39580
C247        C  0.37858547  0.47679592  0.26788931    -0.11860
C248        C  0.34695544  0.47057817  0.28519404     0.05140
C249        C  0.31640206  0.46954361  0.26434281    -0.07150
C250        C  0.31904096  0.46842096  0.22857188    -0.07890
C251        C  0.34925984  0.47862978  0.21141580    -0.02450
C252        C  0.37964052  0.48337884  0.23175260     0.04370
N253        N  0.41088805  0.49688087  0.21705794     0.66880
H254        H  0.40246359  0.47874453  0.28242007     0.15780
H255        H  0.29559764  0.46304916  0.21412542     0.15490
N256        N  0.28224878  0.47470430  0.27806522     0.74580
O257        O  0.40959151  0.02339792  0.19783262    -0.38870
O258        O  0.44001501  0.48614559  0.22780869    -0.38810
O259        O  0.27600567  0.50080563  0.29655935    -0.39520
O260        O  0.25729726  0.45656601  0.26740332    -0.39580
C261        C  0.25426433  0.99539488  0.38381021    -0.11860
C262        C  0.26928849  0.46233185  0.38212892     0.05140
C263        C  0.24780706  0.43294272  0.38079841    -0.07150
C264        C  0.21162151  0.43760382  0.37918935    -0.07890
C265        C  0.19677079  0.47086533  0.37892122    -0.02450
C266        C  0.21824668  0.00015925  0.38221934     0.04370
N267        N  0.20412950  0.03479819  0.38178055     0.66880
H268        H  0.27094385  0.01784857  0.38404030     0.15780
H269        H  0.19498549  0.41531719  0.37636330     0.15490
N270        N  0.26243666  0.39864822  0.37917086     0.74580
O271        O  0.22182036  0.05964201  0.37023371    -0.38870
O272        O  0.17520686  0.04124558  0.39545454    -0.38810
O273        O  0.29124958  0.39183715  0.39341019    -0.39520
O274        O  0.24635983  0.37479765  0.36388076    -0.39580
C275        C  0.08571105  0.21355079  0.01351384    -0.11860
C276        C  0.10941111  0.19519882  0.49309220     0.05140
C277        C  0.13058519  0.21356679  0.46965725    -0.07150
C278        C  0.13068158  0.24976218  0.47054977    -0.07890
C279        C  0.11011183  0.26823836  0.49400495    -0.02450
C280        C  0.08591934  0.24995730  0.01440330     0.04370
N281        N  0.06301990  0.26744707  0.03767592     0.66880
H282        H  0.06903838  0.19951776  0.03106414     0.15780
H283        H  0.14788670  0.26376318  0.45348693     0.15490
N284        N  0.15290289  0.19584841  0.44572429     0.74580
O285        O  0.03176100  0.25825776  0.53968047    -0.38870
O286        O  0.07461015  0.28939974  0.05878587    -0.38810
O287        O  0.14381196  0.16745671  0.43258162    -0.39520
O288        O  0.18058665  0.20976357  0.93558785    -0.39580
C289        C  0.21265450  0.08680625  0.49142953    -0.11860
C290        C  0.19583187  0.10359314  0.51871973     0.05140
C291        C  0.21570950  0.11821445  0.04574617    -0.07150
C292        C  0.25185212  0.11976553  0.04226618    -0.07890
C293        C  0.26840827  0.10630046  0.51303513    -0.02450
C294        C  0.24880916  0.08816482  0.48811772     0.04370
N295        N  0.26461842  0.07318076  0.45814491     0.66880
H296        H  0.19738205  0.07557725  0.47074709     0.15780
H297        H  0.26723651  0.13254760  0.06190060     0.15490
N298        N  0.19947515  0.13251126  0.07601426     0.74580
O299        O  0.25380596  0.04465892  0.44679571    -0.38870
O300        O  0.28662845  0.08984815  0.44082945    -0.38810
O301        O  0.17059177  0.12127604  0.08614010    -0.39520
O302        O  0.21538084  0.15402711  0.09464804    -0.39580
C303        C  0.21611673  0.36098140  0.03522660    -0.11860
C304        C  0.19726004  0.36043202  0.50409366     0.05140
C305        C  0.21485983  0.36111980  0.47227066    -0.07150
C306        C  0.25107636  0.36042081  0.47227248    -0.07890
C307        C  0.27004626  0.35908240  0.50328442    -0.02450
C308        C  0.25259910  0.36019325  0.03541859     0.04370
N309        N  0.27098381  0.35824463  0.06808903     0.66880
H310        H  0.20214748  0.35994402  0.05943498     0.15780
H311        H  0.26459622  0.35890938  0.44786058     0.15490
N312        N  0.19631134  0.35950968  0.43993719     0.74580
O313        O  0.25523089  0.34980459  0.09536893    -0.38870
O314        O  0.30248375  0.36653658  0.07040315    -0.38810
O315        O  0.16931533  0.37752559  0.43498970    -0.39520
O316        O  0.20733406  0.34057105  0.41585173    -0.39580
C317        C  0.37059630  0.21315689  0.02083521    -0.11860
C318        C  0.35733368  0.19552451  0.49215208     0.05140
C319        C  0.34701123  0.21428178  0.46220107    -0.07150
C320        C  0.34860349  0.25060875  0.46271480    -0.07890
C321        C  0.35978253  0.26836649  0.49229442    -0.02450
C322        C  0.37169031  0.24940125  0.02143460     0.04370
N323        N  0.38144449  0.26631987  0.05296832     0.66880
H324        H  0.37805640  0.19862787  0.04382418     0.15780
H325        H  0.33924775  0.26538217  0.44058921     0.15490
N326        N  0.33337501  0.19715180  0.43198453     0.74580
O327        O  0.37208156  0.25393338  0.08169047    -0.38870
O328        O  0.40209930  0.29148506  0.05252752    -0.38810
O329        O  0.34183715  0.16632502  0.42524642    -0.39520
O330        O  0.31464387  0.21359202  0.41050291    -0.39580
C331        C  0.36780154  0.36651263  0.99654083     0.03530
C332        C  0.37689345  0.33122735  0.99343935    -0.12620
C333        C  0.35133170  0.30561510  0.99476372     0.01030
C334        C  0.31653664  0.31525855  0.49842079    -0.11140
C335        C  0.30705953  0.35008451  0.50083217     0.03530
C336        C  0.33249558  0.37568774  0.49960250    -0.10560
H337        H  0.40372260  0.32352691  0.99032268     0.09120
H338        H  0.29669415  0.29552681  0.49927743     0.06650
H339        H  0.32468925  0.40257980  0.50155118     0.06500
C340        C  0.36583149  0.09790265  0.00055687     0.03530
C341        C  0.33094316  0.08903067  0.00634885    -0.12620
C342        C  0.30524484  0.11480381  0.00755367     0.01030
C343        C  0.31433730  0.14947647  0.00267439    -0.11140
C344        C  0.34875374  0.15866124  0.99669894     0.03530
C345        C  0.37450238  0.13301586  0.99604149    -0.10560
H346        H  0.32363696  0.06225583  0.01010464     0.09120
H347        H  0.29447843  0.16944088  0.00332922     0.06650
H348        H  0.40110202  0.14054909  0.99159070     0.06500
C349        C  0.09839183  0.09768605  0.00403577     0.03530
C350        C  0.13306512  0.08790549  0.01098010    -0.12620
C351        C  0.15888225  0.11299609  0.01397960     0.01030
C352        C  0.15024272  0.14788490  0.00922252    -0.11140
C353        C  0.11634428  0.15810551  0.00070952     0.03470
C354        C  0.09024195  0.13304935  0.99900575    -0.10560
H355        H  0.14010892  0.06090597  0.01434015     0.09120
H356        H  0.17042590  0.16721182  0.01091556     0.06650
H357        H  0.06396617  0.14105644  0.99279544     0.06500
C358        C  0.09938056  0.36655868  0.00086940     0.03530
C359        C  0.13433734  0.37616037  0.00470167    -0.12620
C360        C  0.16044843  0.35100165  0.00489903     0.01030
C361        C  0.15184526  0.31610096  0.00246210    -0.11140
C362        C  0.11732580  0.30575651  0.99838695     0.03530
C363        C  0.09110880  0.33117192  0.99729145    -0.10560
H364        H  0.14152379  0.40314373  0.00654639     0.09120
H365        H  0.17244275  0.29687517  0.00290632     0.06650
H366        H  0.06448825  0.32335558  0.99331670     0.06500
C367        C  0.36571289  0.47858133  0.88339156     0.03530
C368        C  0.37172313  0.47763930  0.84727133    -0.12620
C369        C  0.34529145  0.46640351  0.82425498     0.01030
C370        C  0.31535714  0.45236747  0.83937884    -0.11140
C371        C  0.30644607  0.46058317  0.87321411     0.03530
C372        C  0.33175689  0.47345785  0.89537769    -0.10560
H373        H  0.39665977  0.48565367  0.83775622     0.09120
H374        H  0.29676365  0.43817894  0.82420341     0.06650
H375        H  0.32501655  0.47832393  0.92209590     0.06500
C376        C  0.09903271  0.48151869  0.88367013     0.03530
C377        C  0.13361568  0.47418351  0.89337450    -0.12620
C378        C  0.16002151  0.47496391  0.86876975     0.01030
C379        C  0.15198159  0.48248366  0.83421534    -0.11140
C380        C  0.11791678  0.49051075  0.82388162     0.03530
C381        C  0.09137348  0.48940544  0.84864392    -0.10560
H382        H  0.14029891  0.46859742  0.92012255     0.09120
H383        H  0.17265397  0.48277947  0.81535353     0.06650
H384        H  0.06506904  0.49564881  0.84076364     0.06500
C385        C  0.09810344  0.49196974  0.61515307     0.03530
C386        C  0.13297545  0.49193275  0.60479669    -0.12620
C387        C  0.15955188  0.49419071  0.62923593     0.01030
C388        C  0.15153647  0.49669036  0.66433288    -0.11140
C389        C  0.11695363  0.49824123  0.67558751     0.03530
C390        C  0.09023858  0.49629214  0.65057306    -0.10560
H391        H  0.13975973  0.48980617  0.57772036     0.09120
H392        H  0.17263962  0.49746378  0.68296576     0.06650
H393        H  0.06348967  0.49831106  0.65854775     0.06500
C394        C  0.36576520  0.48172095  0.61299861     0.03530
C395        C  0.37234610  0.47821160  0.64897035    -0.12620
C396        C  0.34602931  0.48566309  0.67311774     0.01030
C397        C  0.31379506  0.49747338  0.66017792    -0.11140
C398        C  0.30567833  0.49580945  0.62510805     0.03530
C399        C  0.33160806  0.48822144  0.60146217    -0.10560
H400        H  0.39755828  0.46940251  0.65781478     0.09120
H401        H  0.29349372  0.50562357  0.67760075     0.06650
H402        H  0.32508397  0.48817921  0.57414321     0.06500
C403        C  0.48243353  0.09954555  0.88369681     0.03530
C404        C  0.48375527  0.13477156  0.89277926    -0.12620
C405        C  0.48305557  0.16047025  0.86707788     0.01030
C406        C  0.48212857  0.15104994  0.83218861    -0.11140
C407        C  0.48129852  0.11618505  0.82281444     0.03530
C408        C  0.48138369  0.09050508  0.84843522    -0.10560
H409        H  0.48507689  0.14239688  0.91969425     0.09120
H410        H  0.48218879  0.17091905  0.81224523     0.06650
H411        H  0.48070178  0.06361642  0.84070049     0.06500
C412        C  0.48490172  0.36788565  0.88304244     0.03530
C413        C  0.48571759  0.33253106  0.89224298    -0.12620
C414        C  0.48669459  0.30714826  0.86660173     0.01030
C415        C  0.48591780  0.31684353  0.83172294    -0.11140
C416        C  0.48457929  0.35174977  0.82220713     0.03530
C417        C  0.48456658  0.37726736  0.84773003    -0.10560
H418        H  0.48604969  0.32457840  0.91918242     0.09120
H419        H  0.48640162  0.29711803  0.81187603     0.06650
H420        H  0.48399388  0.40423401  0.83990644     0.06500
C421        C  0.48335314  0.09682544  0.61542247     0.03530
C422        C  0.48347963  0.08685104  0.65061625    -0.12620
C423        C  0.48552401  0.11183918  0.67656957     0.01030
C424        C  0.48685168  0.14685517  0.66764334    -0.11140
C425        C  0.48615757  0.15727074  0.63297281     0.03530
C426        C  0.48437464  0.13235163  0.60682859    -0.10560
H427        H  0.48235778  0.05979945  0.65801983     0.09120
H428        H  0.48800566  0.16618612  0.68785485     0.06650
H429        H  0.48386798  0.14076952  0.58003229     0.06500
C430        C  0.48511660  0.36539011  0.61464475     0.03530
C431        C  0.48577379  0.37497141  0.64979803    -0.12620
C432        C  0.48702165  0.34969227  0.67581713     0.01030
C433        C  0.48686618  0.31473503  0.66707787    -0.11140
C434        C  0.48571809  0.30469379  0.63243777     0.03530
C435        C  0.48528873  0.32990861  0.60615223    -0.10560
H436        H  0.48555599  0.40197755  0.65716458     0.09120
H437        H  0.48721166  0.29521491  0.68737403     0.06650
H438        H  0.48442966  0.32178441  0.57937304     0.06500
O439        O  0.42685247  0.38362738  0.99761015    -0.79730
O440        O  0.42499456  0.08075954  0.99923172    -0.81280
O441        O  0.38485313  0.48045303  0.55497569    -0.78300
O442        O  0.38517559  0.48304453  0.94127805    -0.76680
O443        O  0.42583344  0.48312000  0.89857435    -0.78480
O444        O  0.42568009  0.48005491  0.59808153    -0.79410
O445        O  0.38345853  0.03885693  0.99925548    -0.80730
O446        O  0.38479933  0.42553503  0.99742413    -0.81020
Eu447      Eu  0.41299248  0.48237047  0.99838712     2.39200
O448        O  0.44724877  0.01820746  0.96340626    -0.88530
O449        O  0.44764946  0.44664172  0.53393663    -0.92140
C450        C  0.39486186  0.39359154  0.99715884     1.02550
C451        C  0.39312885  0.07078112  0.99952715     1.02370
C452        C  0.39397547  0.48006250  0.58718332     1.02320
C453        C  0.39414102  0.48262458  0.90915657     1.00170
H454        H  0.43264362  0.03146431  0.54855058     0.29920
O455        O  0.44729165  0.01730839  0.53415502    -1.00920
H456        H  0.43383628  0.43334710  0.94875674     0.29960
O457        O  0.44816962  0.44766236  0.96331954    -1.03460
O458        O  0.03911502  0.08111468  0.00123315    -0.80690
O459        O  0.04010800  0.38344979  0.99911348    -0.80230
O460        O  0.48205234  0.03820656  0.59764624    -0.78660
O461        O  0.48228828  0.04053612  0.90069284    -0.82000
O462        O  0.48379874  0.42673768  0.90017772    -0.79860
O463        O  0.48405258  0.42431836  0.59712175    -0.78510
O464        O  0.07997998  0.48631403  0.55669991    -0.80030
O465        O  0.08109286  0.48166803  0.94244556    -0.81950
O466        O  0.03874874  0.48608423  0.59886953    -0.78690
O467        O  0.03956926  0.48285230  0.89995017    -0.81370
O468        O  0.48278356  0.08058980  0.55613516    -0.77100
O469        O  0.48359370  0.38269317  0.55537065    -0.77130
O470        O  0.48448545  0.38462533  0.94199445    -0.76780
O471        O  0.48223971  0.08193568  0.94268676    -0.80270
O472        O  0.08097225  0.03900039  0.00091450    -0.79700
O473        O  0.08144440  0.42549053  0.00047929    -0.78030
Eu474      Eu  0.48225740  0.05269499  0.99918351     2.39770
Eu475      Eu  0.48342333  0.41230718  0.99886930     2.39570
Eu476      Eu  0.48242570  0.48157446  0.56938635     2.38400
Eu477      Eu  0.48268787  0.48338864  0.92837693     2.39880
Eu478      Eu  0.05267719  0.48239986  0.99929765     2.39790
O479        O  0.01794116  0.44774661  0.96372907    -0.92440
O480        O  0.01703716  0.01672539  0.53414533    -0.91330
C481        C  0.07106925  0.07095200  0.00183409     1.02730
C482        C  0.07189809  0.39351250  0.00002367     1.01450
C483        C  0.48259830  0.07022279  0.58797024     1.00840
C484        C  0.48228740  0.07230692  0.91075763     1.02850
C485        C  0.48440208  0.39479197  0.91011563     1.01770
C486        C  0.48413213  0.39245404  0.58727147     1.00610
C487        C  0.07045100  0.48785599  0.58865033     1.00670
C488        C  0.07145304  0.48199077  0.91033200     1.03290
H489        H  0.03311464  0.43258345  0.54926690     0.30660
O490        O  0.01837473  0.44684276  0.53468478    -1.04600
H491        H  0.03231002  0.03271556  0.94971818     0.32710
O492        O  0.01778223  0.01818077  0.96384990    -1.07170
C493        C  0.01453814  0.24981910  0.61713964    -0.11860
C494        C  0.48371143  0.26748129  0.62467712     0.05140
C495        C  0.45317337  0.24867030  0.63133338    -0.07150
C496        C  0.45470039  0.21243072  0.63094005    -0.07890
C497        C  0.48587350  0.19463866  0.62509176    -0.02450
C498        C  0.01641827  0.21341258  0.61747153     0.04370
N499        N  0.04961090  0.19669460  0.61194586     0.66880
H500        H  0.03786456  0.26475274  0.61339872     0.15780
H501        H  0.43167446  0.19773634  0.63701378     0.15490
N502        N  0.42119572  0.26569761  0.64068513     0.74580
O503        O  0.07523222  0.21420315  0.60198175    -0.38870
O504        O  0.05419113  0.16486829  0.61799334    -0.38810
O505        O  0.41462183  0.29623803  0.63076258    -0.39520
O506        O  0.39842045  0.24953732  0.65749887    -0.39580
C507        C  0.01642181  0.36177232  0.76835276    -0.11860
C508        C  0.48440035  0.36076403  0.78516990     0.05140
C509        C  0.45332924  0.36128000  0.76561672    -0.07150
C510        C  0.45538771  0.36066061  0.72940834    -0.07890
C511        C  0.48742386  0.35911014  0.71261411    -0.02450
C512        C  0.01863218  0.36062352  0.73208934     0.04370
N513        N  0.05241287  0.35898671  0.71609467     0.66880
H514        H  0.03988514  0.36116032  0.78391501     0.15780
H515        H  0.43179742  0.35944995  0.71408599     0.15490
N516        N  0.41981956  0.36030886  0.78189785     0.74580
O517        O  0.07936930  0.35558120  0.73454807    -0.38870
O518        O  0.05594182  0.36241572  0.68380978    -0.38810
O519        O  0.41524901  0.37355185  0.81130999    -0.39520
O520        O  0.39392455  0.34855526  0.76575640    -0.39580
C521        C  0.01357089  0.10481186  0.76952138    -0.11860
C522        C  0.48134211  0.10711427  0.78588797     0.05140
C523        C  0.45039985  0.10400660  0.76620957    -0.07150
C524        C  0.45295224  0.10164953  0.73004006    -0.07890
C525        C  0.48515152  0.10242473  0.71352638    -0.02450
C526        C  0.01599414  0.10222703  0.73341848     0.04370
N527        N  0.04964317  0.10094006  0.71740856     0.66880
H528        H  0.03699559  0.10634182  0.78505594     0.15780
H529        H  0.42957199  0.10188162  0.71433769     0.15490
N530        N  0.41645572  0.10447477  0.78181339     0.74580
O531        O  0.07615872  0.11103711  0.73369081    -0.38870
O532        O  0.05361450  0.08666480  0.68838864    -0.38810
O533        O  0.41156936  0.11720534  0.81139767    -0.39520
O534        O  0.39064730  0.09299524  0.76533042    -0.39580
C535        C  0.01654647  0.21421992  0.87085634    -0.11860
C536        C  0.48484884  0.19747163  0.87586732     0.05140
C537        C  0.45473976  0.21714636  0.88307544    -0.07150
C538        C  0.45691651  0.25339348  0.88283154    -0.07890
C539        C  0.48814469  0.27009453  0.87552698    -0.02450
C540        C  0.01872994  0.25044399  0.87069254     0.04370
N541        N  0.05160496  0.26671695  0.86414931     0.66880
H542        H  0.03942915  0.19881955  0.86548407     0.15780
H543        H  0.43368958  0.26881919  0.88647972     0.15490
N544        N  0.42156031  0.20111750  0.88827237     0.74580
O545        O  0.07546775  0.25026840  0.84910498    -0.38870
O546        O  0.05804321  0.29645057  0.87581648    -0.38810
O547        O  0.41934520  0.17230119  0.90359171    -0.39520
O548        O  0.39402757  0.21725938  0.88046683    -0.39580
C549        C  0.25147388  0.46571335  0.61190932    -0.11860
C550        C  0.26882643  0.49736414  0.61488056     0.05140
C551        C  0.24958708  0.02847884  0.61701637    -0.07150
C552        C  0.21329834  0.02674547  0.61886767    -0.07890
C553        C  0.19615599  0.49485121  0.61858856    -0.02450
C554        C  0.21525836  0.46400698  0.61381804     0.04370
N555        N  0.19870744  0.43076431  0.61382481     0.66880
H556        H  0.26642405  0.44191106  0.61064623     0.15780
H557        H  0.19829554  0.05026181  0.62228338     0.15490
N558        N  0.26651257  0.06153935  0.61917267     0.74580
O559        O  0.17090201  0.42620693  0.59714245    -0.38870
O560        O  0.21333843  0.40508650  0.62818188    -0.38810
O561        O  0.29600570  0.06594898  0.60597798    -0.39520
O562        O  0.25103748  0.08719579  0.63215446    -0.39580
C563        C  0.08593312  0.48136876  0.76814680    -0.11860
C564        C  0.11097863  0.49976345  0.78695613     0.05140
C565        C  0.13268537  0.52308545  0.76904685    -0.07150
C566        C  0.13201428  0.52375257  0.73277522    -0.07890
C567        C  0.11025913  0.50185264  0.71358219    -0.02450
C568        C  0.08528247  0.48216334  0.73171748     0.04370
N569        N  0.06060375  0.46107799  0.71398277     0.66880
H570        H  0.06863465  0.46399827  0.78163730     0.15780
H571        H  0.14949563  0.54093675  0.71930022     0.15490
N572        N  0.15614020  0.54552336  0.78723905     0.74580
O573        O  0.07073820  0.43668104  0.69493668    -0.38870
O574        O  0.02872850  0.46434470  0.72040565    -0.38810
O575        O  0.18452595  0.55416344  0.77372944    -0.39520
O576        O  0.14752718  0.05878050  0.81572786    -0.39580
C577        C  0.37858694  0.47679904  0.76789450    -0.11860
C578        C  0.34695844  0.47058503  0.78520298     0.05140
C579        C  0.31640178  0.46955740  0.76435577    -0.07150
C580        C  0.31903556  0.46843535  0.72858462    -0.07890
C581        C  0.34925349  0.47863977  0.71142488    -0.02450
C582        C  0.37963805  0.48338300  0.73175777     0.04370
N583        N  0.41088660  0.49687830  0.71705909     0.66880
H584        H  0.40246727  0.47874279  0.78242246     0.15780
H585        H  0.29558959  0.46306692  0.71414126     0.15490
N586        N  0.28225109  0.47472380  0.77808268     0.74580
O587        O  0.40959205  0.02339729  0.69783250    -0.38870
O588        O  0.44001265  0.48613597  0.72780535    -0.38810
O589        O  0.27601612  0.50082411  0.79658088    -0.39520
O590        O  0.25729371  0.45659464  0.76741865    -0.39580
C591        C  0.25426466  0.99539433  0.88381045    -0.11860
C592        C  0.26929833  0.46232815  0.88213861     0.05140
C593        C  0.24781589  0.43293948  0.88080005    -0.07150
C594        C  0.21163036  0.43760102  0.87918638    -0.07890
C595        C  0.19677944  0.47086219  0.87891882    -0.02450
C596        C  0.21824693  0.00015864  0.88221935     0.04370
N597        N  0.20412966  0.03479754  0.88178046     0.66880
H598        H  0.27094412  0.01784807  0.88404071     0.15780
H599        H  0.19499456  0.41531481  0.87635566     0.15490
N600        N  0.26244457  0.39864492  0.87916571     0.74580
O601        O  0.22182032  0.05964131  0.87023320    -0.38870
O602        O  0.17520710  0.04124494  0.89545459    -0.38810
O603        O  0.29125959  0.39183119  0.89339939    -0.39520
O604        O  0.24636638  0.37479758  0.86387192    -0.39580
C605        C  0.08570651  0.21354424  0.51351535    -0.11860
C606        C  0.10941349  0.19520209  0.99309127     0.05140
C607        C  0.13059072  0.21356800  0.96965760    -0.07150
C608        C  0.13069525  0.24976342  0.97055369    -0.07890
C609        C  0.11013037  0.26824267  0.99401066    -0.02450
C610        C  0.08590827  0.24995037  0.51440237     0.04370
N611        N  0.06301152  0.26743857  0.53767857     0.66880
H612        H  0.06903764  0.19950947  0.53106785     0.15780
H613        H  0.14790318  0.26376190  0.95349171     0.15490
N614        N  0.15290490  0.19584719  0.94572318     0.74580
O615        O  0.03176997  0.25826385  0.03967750    -0.38870
O616        O  0.07460366  0.28939165  0.55878717    -0.38810
O617        O  0.14381032  0.16745628  0.93258131    -0.39520
O618        O  0.18058371  0.20976783  0.43559057    -0.39580
C619        C  0.21265256  0.08680677  0.99142919    -0.11860
C620        C  0.19582996  0.10359319  0.01871978     0.05140
C621        C  0.21571130  0.11821469  0.54574599    -0.07150
C622        C  0.25185415  0.11976503  0.54226638    -0.07890
C623        C  0.26840580  0.10630238  0.01303425    -0.02450
C624        C  0.24880713  0.08816614  0.98811699     0.04370
N625        N  0.26461666  0.07318231  0.95814411     0.66880
H626        H  0.19738011  0.07557776  0.97074675     0.15780
H627        H  0.26723845  0.13254731  0.56190072     0.15490
N628        N  0.19947666  0.13251205  0.57601373     0.74580
O629        O  0.25380472  0.04466028  0.94679490    -0.38870
O630        O  0.28662710  0.08984962  0.94082909    -0.38810
O631        O  0.17059312  0.12127711  0.58613949    -0.39520
O632        O  0.21538218  0.15402822  0.59464729    -0.39580
C633        C  0.21607160  0.36098407  0.53523155    -0.11860
C634        C  0.19730340  0.36042767  0.00408991     0.05140
C635        C  0.21490439  0.36112381  0.97226773    -0.07150
C636        C  0.25112324  0.36043726  0.97226906    -0.07890
C637        C  0.27009733  0.35910414  0.00328032    -0.02450
C638        C  0.25255235  0.36018410  0.53542312     0.04370
N639        N  0.27093976  0.35823785  0.56809233     0.66880
H640        H  0.20210216  0.35995286  0.55944009     0.15780
H641        H  0.26464215  0.35892962  0.94785672     0.15490
N642        N  0.19635534  0.35951128  0.93993481     0.74580
O643        O  0.25518916  0.34979993  0.59537414    -0.38870
O644        O  0.30244003  0.36652976  0.57040316    -0.38810
O645        O  0.16935523  0.37752151  0.93498862    -0.39520
O646        O  0.20737349  0.34056479  0.91585357    -0.39580
C647        C  0.37059433  0.21315743  0.52083111    -0.11860
C648        C  0.35733360  0.19552749  0.99215512     0.05140
C649        C  0.34701956  0.21428723  0.96220302    -0.07150
C650        C  0.34862784  0.25061375  0.96271443    -0.07890
C651        C  0.35981385  0.26836924  0.99229347    -0.02450
C652        C  0.37167469  0.24940229  0.52143157     0.04370
N653        N  0.38143357  0.26632415  0.55296206     0.66880
H654        H  0.37806275  0.19863024  0.54381861     0.15780
H655        H  0.33927984  0.26538935  0.94058708     0.15490
N656        N  0.33337756  0.19716074  0.93198708     0.74580
O657        O  0.37208362  0.25393499  0.58168738    -0.38870
O658        O  0.40208282  0.29149384  0.55251429    -0.38810
O659        O  0.34183364  0.16633271  0.92524716    -0.39520
O660        O  0.31464638  0.21360467  0.91050834    -0.39580
C661        C  0.36773248  0.86651280  0.49652858     0.03530
C662        C  0.37683615  0.83122953  0.49343106    -0.12620
C663        C  0.35128553  0.80560866  0.49476695     0.01030
C664        C  0.31654074  0.81526104  0.99842019    -0.11140
C665        C  0.30706358  0.85008690  0.00083198     0.03530
C666        C  0.33250046  0.87569009  0.99960294    -0.10560
H667        H  0.40366677  0.82353670  0.49030926     0.09120
H668        H  0.29669800  0.79552948  0.99927645     0.06650
H669        H  0.32469403  0.90258208  0.00155169     0.06500
C670        C  0.36583515  0.59789961  0.50055823     0.03530
C671        C  0.33094618  0.58902798  0.50635012    -0.12620
C672        C  0.30524756  0.61480113  0.50755477     0.01030
C673        C  0.31434020  0.64947336  0.50267479    -0.11140
C674        C  0.34875656  0.65865811  0.49669894     0.03530
C675        C  0.37450585  0.63301291  0.49604234    -0.10560
H676        H  0.32363971  0.56225325  0.51010603     0.09120
H677        H  0.29448120  0.66943774  0.50332891     0.06650
H678        H  0.40110544  0.64054601  0.49159119     0.06500
C679        C  0.09839374  0.59768392  0.50403559     0.03530
C680        C  0.13306708  0.58790406  0.51098013    -0.12620
C681        C  0.15888366  0.61299532  0.51397950     0.01030
C682        C  0.15024330  0.64788394  0.50922218    -0.11140
C683        C  0.11634450  0.65810324  0.50070940     0.03470
C684        C  0.09024304  0.63304670  0.49900553    -0.10560
H685        H  0.14011129  0.56090467  0.51434036     0.09120
H686        H  0.17042582  0.66721155  0.51091511     0.06650
H687        H  0.06396709  0.64105328  0.49279523     0.06500
C688        C  0.09934242  0.86655036  0.50086685     0.03530
C689        C  0.13429689  0.87615694  0.50470407    -0.12620
C690        C  0.16040995  0.85100226  0.50490266     0.01030
C691        C  0.15181419  0.81610124  0.50246232    -0.11140
C692        C  0.11729820  0.80575244  0.49838059     0.03530
C693        C  0.09107635  0.83116313  0.49728433    -0.10560
H694        H  0.14148063  0.90314091  0.50655145     0.09120
H695        H  0.17241501  0.79687883  0.50290823     0.06650
H696        H  0.06445737  0.82334311  0.49330672     0.06500
C697        C  0.36569605  0.97859671  0.38338396     0.03530
C698        C  0.37171053  0.97764722  0.34726526    -0.12620
C699        C  0.34528320  0.96640170  0.32424955     0.01030
C700        C  0.31534966  0.95236401  0.33937419    -0.11140
C701        C  0.30643516  0.96058661  0.37320704     0.03530
C702        C  0.33174084  0.97347204  0.39536840    -0.10560
H703        H  0.39664744  0.98566203  0.33775132     0.09120
H704        H  0.29675932  0.93816933  0.32420078     0.06650
H705        H  0.32499742  0.97834339  0.42208490     0.06500
C706        C  0.09902386  0.98151888  0.38367231     0.03530
C707        C  0.13360710  0.97418518  0.39337715    -0.12620
C708        C  0.16001330  0.97496700  0.36877277     0.01030
C709        C  0.15197442  0.98248744  0.33421852    -0.11140
C710        C  0.11791016  0.99051451  0.32388399     0.03530
C711        C  0.09136579  0.98940728  0.34864578    -0.10560
H712        H  0.14029008  0.96859840  0.42012511     0.09120
H713        H  0.17264741  0.98278350  0.31535731     0.06650
H714        H  0.06506136  0.99564969  0.34076487     0.06500
C715        C  0.09810352  0.99196899  0.11515380     0.03530
C716        C  0.13297563  0.99193122  0.10479767    -0.12620
C717        C  0.15955201  0.99418897  0.12923707     0.01030
C718        C  0.15153636  0.99668926  0.16433399    -0.11140
C719        C  0.11695342  0.99824062  0.17558842     0.03530
C720        C  0.09023853  0.99629171  0.15057373    -0.10560
H721        H  0.13976001  0.98980423  0.07772140     0.09120
H722        H  0.17263937  0.99746269  0.18296701     0.06650
H723        H  0.06348960  0.99831111  0.15854822     0.06500
C724        C  0.36576728  0.98172102  0.11299609     0.03530
C725        C  0.37234809  0.97820968  0.14896746    -0.12620
C726        C  0.34603048  0.98565777  0.17311469     0.01030
C727        C  0.31379581  0.99746748  0.16017596    -0.11140
C728        C  0.30567917  0.99580569  0.12510614     0.03530
C729        C  0.33160956  0.98822043  0.10145982    -0.10560
H730        H  0.39756073  0.96940176  0.15781188     0.09120
H731        H  0.29349404  0.00561465  0.17759981     0.06650
H732        H  0.32508562  0.98817982  0.07414082     0.06500
C733        C  0.48243623  0.59954206  0.38370291     0.03530
C734        C  0.48375714  0.63476838  0.39278540    -0.12620
C735        C  0.48305675  0.66046732  0.36708382     0.01030
C736        C  0.48212868  0.65104730  0.33219464    -0.11140
C737        C  0.48129876  0.61618263  0.32282030     0.03530
C738        C  0.48138523  0.59050230  0.34844097    -0.10560
H739        H  0.48507894  0.64239359  0.41970039     0.09120
H740        H  0.48218825  0.67091656  0.31225133     0.06650
H741        H  0.48070371  0.56361378  0.34070586     0.06500
C742        C  0.48486846  0.86787795  0.38303290     0.03530
C743        C  0.48569454  0.83252470  0.39223439    -0.12620
C744        C  0.48669350  0.80714260  0.36659446     0.01030
C745        C  0.48592807  0.81683652  0.33171513    -0.11140
C746        C  0.48457914  0.85174223  0.32219863     0.03530
C747        C  0.48454651  0.87725984  0.34772085    -0.10560
H748        H  0.48601769  0.82457248  0.41917402     0.09120
H749        H  0.48642509  0.79711072  0.31186887     0.06650
H750        H  0.48396577  0.90422631  0.33989681     0.06500
C751        C  0.48334825  0.59683948  0.11542888     0.03530
C752        C  0.48347525  0.58686164  0.15062153    -0.12620
C753        C  0.48552335  0.61184727  0.17657654     0.01030
C754        C  0.48685385  0.64686383  0.16765293    -0.11140
C755        C  0.48615803  0.65728116  0.13298293     0.03530
C756        C  0.48437078  0.63236514  0.10683751    -0.10560
H757        H  0.48235205  0.55980950  0.15802286     0.09120
H758        H  0.48801062  0.66619344  0.18786553     0.06650
H759        H  0.48386342  0.64078528  0.08004186     0.06500
C760        C  0.48511965  0.86539748  0.11463876     0.03530
C761        C  0.48577586  0.87497776  0.14979221    -0.12620
C762        C  0.48702230  0.84969785  0.17581043     0.01030
C763        C  0.48686586  0.81474116  0.16707083    -0.11140
C764        C  0.48571742  0.80470075  0.13243092     0.03530
C765        C  0.48528975  0.82991590  0.10614552    -0.10560
H766        H  0.48555905  0.90198367  0.15715955     0.09120
H767        H  0.48721079  0.79522070  0.18736677     0.06650
H768        H  0.48443085  0.82179210  0.07936621     0.06500
O769        O  0.42677020  0.88362441  0.49760461    -0.79730
O770        O  0.42499943  0.58075236  0.49923292    -0.81280
O771        O  0.38485534  0.98045584  0.05497377    -0.78300
O772        O  0.38515141  0.98306004  0.44127105    -0.76680
O773        O  0.42581353  0.98312001  0.39857067    -0.78480
O774        O  0.42568297  0.98006073  0.09807889    -0.79410
O775        O  0.38345982  0.53885326  0.49925594    -0.80730
O776        O  0.38472751  0.92554086  0.49741266    -0.81020
Eu777      Eu  0.41295520  0.98236416  0.49838592     2.39200
O778        O  0.44724746  0.51819795  0.46340556    -0.88530
O779        O  0.44765312  0.94665042  0.03393904    -0.92140
C780        C  0.39478463  0.89359485  0.49714800     1.02550
C781        C  0.39313233  0.57077678  0.49952814     1.02370
C782        C  0.39397802  0.98006558  0.08718107     1.02320
C783        C  0.39412063  0.98263668  0.40915062     1.00170
H784        H  0.43265930  0.53147592  0.04855099     0.29920
O785        O  0.44731356  0.51732634  0.03415553    -1.00920
H786        H  0.43377748  0.93334058  0.44874527     0.29960
O787        O  0.44811580  0.94764794  0.46331122    -1.03460
O788        O  0.03911752  0.58111337  0.50123281    -0.80690
O789        O  0.04006791  0.88344025  0.49911225    -0.80230
O790        O  0.48206244  0.53822449  0.09764848    -0.78660
O791        O  0.48228835  0.54053114  0.40069803    -0.82000
O792        O  0.48377009  0.92672728  0.40016660    -0.79860
O793        O  0.48405807  0.92432701  0.09711715    -0.78510
O794        O  0.07998001  0.98631423  0.05670043    -0.80030
O795        O  0.08108163  0.98166242  0.44244812    -0.81950
O796        O  0.03874877  0.98608387  0.09887006    -0.78690
O797        O  0.03955906  0.98284857  0.39995227    -0.81370
O798        O  0.48277831  0.58061198  0.05614055    -0.77100
O799        O  0.48360144  0.88270308  0.05536553    -0.77130
O800        O  0.48440335  0.88461553  0.44198385    -0.76780
O801        O  0.48224717  0.58192942  0.44269329    -0.80270
O802        O  0.08097402  0.53899853  0.50091419    -0.79700
O803        O  0.08140903  0.92547853  0.50047654    -0.78030
Eu804      Eu  0.48226042  0.55267740  0.49918459     2.39770
Eu805      Eu  0.48333972  0.91227559  0.49887172     2.39570
Eu806      Eu  0.48243014  0.98158614  0.06938443     2.38400
Eu807      Eu  0.48266208  0.98336519  0.42837772     2.39880
Eu808      Eu  0.05265982  0.98239231  0.49929803     2.39790
O809        O  0.01791092  0.94773770  0.46374041    -0.92440
O810        O  0.01704524  0.51672815  0.03414249    -0.91330
C811        C  0.07107143  0.57095017  0.50183385     1.02730
C812        C  0.07185922  0.89350191  0.50002117     1.01450
C813        C  0.48259761  0.57024110  0.08797461     1.00840
C814        C  0.48229121  0.57230207  0.41076361     1.02850
C815        C  0.48435099  0.89478260  0.41010522     1.01770
C816        C  0.48413801  0.89246271  0.08726638     1.00610
C817        C  0.07045106  0.98785573  0.08865090     1.00670
C818        C  0.07144296  0.98198738  0.41033418     1.03290
H819        H  0.03311515  0.93258395  0.04926730     0.30660
O820        O  0.01837507  0.94684308  0.03468521    -1.04600
H821        H  0.03231166  0.53271495  0.44971705     0.32710
O822        O  0.01778367  0.51818042  0.46384883    -1.07170
C823        C  0.01453823  0.74981952  0.11713970    -0.11860
C824        C  0.48371015  0.76748849  0.12467178     0.05140
C825        C  0.45317288  0.74867792  0.13133353    -0.07150
C826        C  0.45470109  0.71243882  0.13094702    -0.07890
C827        C  0.48587450  0.69464750  0.12510123    -0.02450
C828        C  0.01641842  0.71341308  0.11747177     0.04370
N829        N  0.04961100  0.69669499  0.11194596     0.66880
H830        H  0.03786462  0.76475319  0.11339870     0.15780
H831        H  0.43167587  0.69774450  0.13702376     0.15490
N832        N  0.42119514  0.76570535  0.14068473     0.74580
O833        O  0.07523240  0.71420352  0.10198202    -0.38870
O834        O  0.05419103  0.66486855  0.11799284    -0.38810
O835        O  0.41462078  0.79624514  0.13076061    -0.39520
O836        O  0.39841989  0.74954542  0.15749892    -0.39580
C837        C  0.01642220  0.86177267  0.26835240    -0.11860
C838        C  0.48440153  0.86075721  0.28516226     0.05140
C839        C  0.45333028  0.86127791  0.26560948    -0.07150
C840        C  0.45538875  0.86066309  0.22940129    -0.07890
C841        C  0.48742495  0.85911370  0.21260721    -0.02450
C842        C  0.01863240  0.86062360  0.23208904     0.04370
N843        N  0.05241302  0.85898636  0.21609428     0.66880
H844        H  0.03988559  0.86116060  0.28391456     0.15780
H845        H  0.43179840  0.85945505  0.21407874     0.15490
N846        N  0.41982046  0.86030618  0.28189043     0.74580
O847        O  0.07936944  0.85558033  0.23454760    -0.38870
O848        O  0.05594193  0.86241548  0.18380939    -0.38810
O849        O  0.41524926  0.87354931  0.31130237    -0.39520
O850        O  0.39392560  0.84855311  0.26574838    -0.39580
C851        C  0.01357090  0.60481167  0.26952130    -0.11860
C852        C  0.48134223  0.60711285  0.28589358     0.05140
C853        C  0.45039984  0.60400684  0.26621499    -0.07150
C854        C  0.45295207  0.60165233  0.23004546    -0.07890
C855        C  0.48515118  0.60242916  0.21353201    -0.02450
C856        C  0.01599415  0.60222709  0.23341843     0.04370
N857        N  0.04964315  0.60093999  0.21740846     0.66880
H858        H  0.03699560  0.60634146  0.28505589     0.15780
H859        H  0.42957179  0.60188577  0.21434310     0.15490
N860        N  0.41645566  0.60447466  0.28181854     0.74580
O861        O  0.07615876  0.61103696  0.23369067    -0.38870
O862        O  0.05361438  0.58666459  0.18838860    -0.38810
O863        O  0.41156906  0.61720517  0.31140278    -0.39520
O864        O  0.39064726  0.59299602  0.26533486    -0.39580
C865        C  0.01654704  0.71421879  0.37085613    -0.11860
C866        C  0.48485035  0.69746887  0.37587215     0.05140
C867        C  0.45474089  0.71714419  0.38307772    -0.07150
C868        C  0.45691759  0.75339086  0.38283081    -0.07890
C869        C  0.48814520  0.77009080  0.37552320    -0.02450
C870        C  0.01873049  0.75044277  0.37069153     0.04370
N871        N  0.05160557  0.76671585  0.36414896     0.66880
H872        H  0.03942980  0.69881831  0.36548450     0.15780
H873        H  0.43369066  0.76881699  0.38647754     0.15490
N874        N  0.42156085  0.70111647  0.38827395     0.74580
O875        O  0.07546854  0.75026757  0.34910466    -0.38870
O876        O  0.05804358  0.79644937  0.37581654    -0.38810
O877        O  0.41934457  0.67230009  0.40359288    -0.39520
O878        O  0.39402875  0.71725944  0.38046823    -0.39580
C879        C  0.25147376  0.96571009  0.11190932    -0.11860
C880        C  0.26882695  0.99736070  0.11487936     0.05140
C881        C  0.24959812  0.52847462  0.11701265    -0.07150
C882        C  0.21330933  0.52674175  0.11886923    -0.07890
C883        C  0.19615630  0.99484875  0.11858978    -0.02450
C884        C  0.21525820  0.96400423  0.11381913     0.04370
N885        N  0.19870678  0.93076181  0.11382655     0.66880
H886        H  0.26642356  0.94190757  0.11064611     0.15780
H887        H  0.19830740  0.55025818  0.12228798     0.15490
N888        N  0.26652339  0.56153515  0.11917061     0.74580
O889        O  0.17090107  0.92620464  0.09714460    -0.38870
O890        O  0.21333755  0.90508397  0.12818378    -0.38810
O891        O  0.29601635  0.56594577  0.10597598    -0.39520
O892        O  0.25104777  0.58719105  0.13215297    -0.39580
C893        C  0.08592975  0.98137111  0.26814761    -0.11860
C894        C  0.11097413  0.99976653  0.28695764     0.05140
C895        C  0.13268280  0.02308693  0.26904805    -0.07150
C896        C  0.13201334  0.02375252  0.23277627    -0.07890
C897        C  0.11025845  0.00185253  0.21358310    -0.02450
C898        C  0.08528096  0.98216412  0.23171820     0.04370
N899        N  0.06060281  0.96107834  0.21398329     0.66880
H900        H  0.06863048  0.96400126  0.28163788     0.15780
H901        H  0.14949556  0.04093582  0.21930129     0.15490
N902        N  0.15613792  0.04552486  0.28723995     0.74580
O903        O  0.07073784  0.93668078  0.19493828    -0.38870
O904        O  0.02872735  0.96434546  0.22040493    -0.38810
O905        O  0.18452369  0.05416464  0.27373010    -0.39520
O906        O  0.14752766  0.55878128  0.31572872    -0.39580
C907        C  0.37858305  0.97679546  0.26789181    -0.11860
C908        C  0.34695379  0.97057696  0.28519758     0.05140
C909        C  0.31639946  0.96954186  0.26434791    -0.07150
C910        C  0.31903679  0.96841937  0.22857727    -0.07890
C911        C  0.34925398  0.97863096  0.21142060    -0.02450
C912        C  0.37963609  0.98337958  0.23175542     0.04370
N913        N  0.41088315  0.99688118  0.21705915     0.66880
H914        H  0.40246185  0.97874377  0.28242152     0.15780
H915        H  0.29559308  0.96304717  0.21413155     0.15490
N916        N  0.28224680  0.97470332  0.27807144     0.74580
O917        O  0.40959681  0.52339797  0.19783188    -0.38870
O918        O  0.44001050  0.98614527  0.22780827    -0.38810
O919        O  0.27600479  0.00080566  0.29656449    -0.39520
O920        O  0.25729439  0.95656620  0.26740959    -0.39580
C921        C  0.25426423  0.49539492  0.38380888    -0.11860
C922        C  0.26928853  0.96233172  0.38213104     0.05140
C923        C  0.24780699  0.93294269  0.38079963    -0.07150
C924        C  0.21162149  0.93760394  0.37918970    -0.07890
C925        C  0.19677089  0.97086550  0.37892126    -0.02450
C926        C  0.21824654  0.50015916  0.38221897     0.04370
N927        N  0.20412925  0.53479807  0.38178059     0.66880
H928        H  0.27094369  0.51784867  0.38403884     0.15780
H929        H  0.19498546  0.91531738  0.37636322     0.15490
N930        N  0.26243649  0.89864814  0.37917174     0.74580
O931        O  0.22182000  0.55964205  0.37023393    -0.38870
O932        O  0.17520663  0.54124525  0.39545468    -0.38810
O933        O  0.29124946  0.89183682  0.39341085    -0.39520
O934        O  0.24635985  0.87479793  0.36388086    -0.39580
C935        C  0.08570778  0.71354629  0.01351531    -0.11860
C936        C  0.10941092  0.69519885  0.49309204     0.05140
C937        C  0.13058507  0.71356678  0.46965712    -0.07150
C938        C  0.13068164  0.74976216  0.47054974    -0.07890
C939        C  0.11011200  0.76823839  0.49400498    -0.02450
C940        C  0.08590886  0.74995215  0.01440209     0.04370
N941        N  0.06301188  0.76743994  0.03767836     0.66880
H942        H  0.06903932  0.69951122  0.03106800     0.15780
H943        H  0.14788682  0.76376313  0.45348692     0.15490
N944        N  0.15290270  0.69584835  0.44572413     0.74580
O945        O  0.03176115  0.75825803  0.53968052    -0.38870
O946        O  0.07460392  0.78939252  0.05878752    -0.38810
O947        O  0.14381168  0.66745668  0.43258146    -0.39520
O948        O  0.18058423  0.70976926  0.93558971    -0.39580
C949        C  0.21265418  0.58680612  0.49142972    -0.11860
C950        C  0.19583151  0.60359315  0.51871981     0.05140
C951        C  0.21571338  0.61821235  0.04574646    -0.07150
C952        C  0.25185648  0.61975868  0.04226833    -0.07890
C953        C  0.26840786  0.60630069  0.51303519    -0.02450
C954        C  0.24880883  0.58816478  0.48811790     0.04370
N955        N  0.26461815  0.57318062  0.45814516     0.66880
H956        H  0.19738177  0.57557695  0.47074735     0.15780
H957        H  0.26724140  0.63253876  0.06190364     0.15490
N958        N  0.19947882  0.63251003  0.07601406     0.74580
O959        O  0.25380571  0.54465875  0.44679599    -0.38870
O960        O  0.28662820  0.58984796  0.44082968    -0.38810
O961        O  0.17059464  0.62127615  0.08613924    -0.39520
O962        O  0.21538455  0.65402604  0.09464757    -0.39580
C963        C  0.21607380  0.86098416  0.03523138    -0.11860
C964        C  0.19726046  0.86043194  0.50409368     0.05140
C965        C  0.21486026  0.86111977  0.47227068    -0.07150
C966        C  0.25107682  0.86042094  0.47227249    -0.07890
C967        C  0.27004679  0.85908277  0.50328441    -0.02450
C968        C  0.25255472  0.86018471  0.03542292     0.04370
N969        N  0.27094173  0.85823819  0.06809226     0.66880
H970        H  0.20210441  0.85995263  0.05943995     0.15780
H971        H  0.26459666  0.85890946  0.44786059     0.15490
N972        N  0.19631174  0.85950960  0.43993722     0.74580
O973        O  0.25519095  0.84979949  0.09537375    -0.38870
O974        O  0.30244171  0.86653097  0.07040359    -0.38810
O975        O  0.16931567  0.87752541  0.43498975    -0.39520
O976        O  0.20733448  0.84057097  0.41585176    -0.39580
C977        C  0.37059010  0.71315688  0.02083220    -0.11860
C978        C  0.35733354  0.69552464  0.49215229     0.05140
C979        C  0.34701123  0.71428196  0.46220125    -0.07150
C980        C  0.34860375  0.75060895  0.46271492    -0.07890
C981        C  0.35978294  0.76836673  0.49229450    -0.02450
C982        C  0.37167368  0.74940185  0.02143208     0.04370
N983        N  0.38143361  0.76632314  0.05296253     0.66880
H984        H  0.37805738  0.69862940  0.04381986     0.15780
H985        H  0.33924812  0.76538239  0.44058930     0.15490
N986        N  0.33337496  0.69715201  0.43198472     0.74580
O987        O  0.37208417  0.75393384  0.08168797    -0.38870
O988        O  0.40208314  0.79149259  0.05251453    -0.38810
O989        O  0.34183694  0.66632516  0.42524667    -0.39520
O990        O  0.31464391  0.71359229  0.41050307    -0.39580
C991        C  0.36773741  0.86651507  0.99652935     0.03530
C992        C  0.37684045  0.83123125  0.99343171    -0.12620
C993        C  0.35128895  0.80561013  0.99476655     0.01030
C994        C  0.31653729  0.81525901  0.49842085    -0.11140
C995        C  0.30706018  0.85008497  0.50083219     0.03530
C996        C  0.33249630  0.87568821  0.49960246    -0.10560
H997        H  0.40367111  0.82353843  0.99031044     0.09120
H998        H  0.29669477  0.79552729  0.49927753     0.06650
H999        H  0.32468996  0.90258028  0.50155107     0.06500
C1000       C  0.36583742  0.59789885  0.00055578     0.03530
C1001       C  0.33094956  0.58902377  0.00634814    -0.12620
C1002       C  0.30524910  0.61479568  0.00755488     0.01030
C1003       C  0.31433877  0.64946898  0.00267531    -0.11140
C1004       C  0.34875385  0.65865676  0.99669845     0.03530
C1005       C  0.37450450  0.63301344  0.99604018    -0.10560
H1006       H  0.32364601  0.56224816  0.01010353     0.09120
H1007       H  0.29447836  0.66943189  0.00333082     0.06650
H1008       H  0.40110313  0.64054958  0.99158859     0.06500
C1009       C  0.09839732  0.59768933  0.00403616     0.03530
C1010       C  0.13307020  0.58790875  0.01098035    -0.12620
C1011       C  0.15888675  0.61299913  0.01397906     0.01030
C1012       C  0.15024679  0.64788786  0.00922223    -0.11140
C1013       C  0.11634763  0.65810712  0.00071017     0.03470
C1014       C  0.09024621  0.63305130  0.99900635    -0.10560
H1015       H  0.14011439  0.56090932  0.01434054     0.09120
H1016       H  0.17042951  0.66721524  0.01091479     0.06650
H1017       H  0.06397017  0.64105775  0.99279605     0.06500
C1018       C  0.09934331  0.86655146  0.00086713     0.03530
C1019       C  0.13429791  0.87615797  0.00470427    -0.12620
C1020       C  0.16041105  0.85100314  0.00490286     0.01030
C1021       C  0.15181493  0.81610223  0.00246263    -0.11140
C1022       C  0.11729885  0.80575378  0.99838079     0.03530
C1023       C  0.09107714  0.83116437  0.99728457    -0.10560
H1024       H  0.14148164  0.90314193  0.00655158     0.09120
H1025       H  0.17241556  0.79687961  0.00290848     0.06650
H1026       H  0.06445816  0.82334434  0.99330685     0.06500
C1027       C  0.36569732  0.97859628  0.88338463     0.03530
C1028       C  0.37171154  0.97764696  0.84726583    -0.12620
C1029       C  0.34528396  0.96640170  0.82425012     0.01030
C1030       C  0.31535046  0.95236393  0.83937469    -0.11140
C1031       C  0.30643599  0.96058616  0.87320761     0.03530
C1032       C  0.33174196  0.97347123  0.89536909    -0.10560
H1033       H  0.39664830  0.98566209  0.83775175     0.09120
H1034       H  0.29676002  0.93816956  0.82420109     0.06650
H1035       H  0.32499855  0.97834250  0.92208560     0.06500
C1036       C  0.09902387  0.98151865  0.88367245     0.03530
C1037       C  0.13360714  0.97418480  0.89337724    -0.12620
C1038       C  0.16001337  0.97496643  0.86877279     0.01030
C1039       C  0.15197439  0.98248687  0.83421854    -0.11140
C1040       C  0.11791012  0.99051401  0.82388406     0.03530
C1041       C  0.09136579  0.98940693  0.84864589    -0.10560
H1042       H  0.14029011  0.96859809  0.92012521     0.09120
H1043       H  0.17264733  0.98278289  0.81535728     0.06650
H1044       H  0.06506137  0.99564944  0.84076500     0.06500
C1045       C  0.09810363  0.99196921  0.61515377     0.03530
C1046       C  0.13297571  0.99193167  0.60479766    -0.12620
C1047       C  0.15955201  0.99418946  0.62923707     0.01030
C1048       C  0.15153641  0.99668954  0.66433401    -0.11140
C1049       C  0.11695348  0.99824071  0.67558844     0.03530
C1050       C  0.09023861  0.99629184  0.65057372    -0.10560
H1051       H  0.13976012  0.98980482  0.57772138     0.09120
H1052       H  0.17263943  0.99746295  0.68296702     0.06650
H1053       H  0.06348966  0.99831106  0.65854822     0.06500
C1054       C  0.36576580  0.98172012  0.61299670     0.03530
C1055       C  0.37234688  0.97820929  0.64896805    -0.12620
C1056       C  0.34602979  0.98565850  0.67311534     0.01030
C1057       C  0.31379526  0.99746867  0.66017664    -0.11140
C1058       C  0.30567853  0.99580666  0.62510681     0.03530
C1059       C  0.33160845  0.98822053  0.60146047    -0.10560
H1060       H  0.39755929  0.96940068  0.65781246     0.09120
H1061       H  0.29349366  0.00561624  0.67760051     0.06650
H1062       H  0.32508438  0.98817958  0.57414149     0.06500
C1063       C  0.48242891  0.59955724  0.88369449     0.03530
C1064       C  0.48375113  0.63478295  0.89277479    -0.12620
C1065       C  0.48305302  0.66047937  0.86707216     0.01030
C1066       C  0.48212753  0.65105807  0.83218321    -0.11140
C1067       C  0.48129615  0.61619280  0.82281103     0.03530
C1068       C  0.48137879  0.59051449  0.84843341    -0.10560
H1069       H  0.48507319  0.64240998  0.91968930     0.09120
H1070       H  0.48218982  0.67092633  0.81223898     0.06650
H1071       H  0.48069632  0.56362539  0.84070031     0.06500
C1072       C  0.48487086  0.86788608  0.88303488     0.03530
C1073       C  0.48569628  0.83253292  0.89223687    -0.12620
C1074       C  0.48669424  0.80715055  0.86659716     0.01030
C1075       C  0.48592799  0.81684345  0.83171778    -0.11140
C1076       C  0.48457925  0.85174866  0.82220045     0.03530
C1077       C  0.48454755  0.87726703  0.84772229    -0.10560
H1078       H  0.48602003  0.82458105  0.91917660     0.09120
H1079       H  0.48642439  0.79711708  0.81187200     0.06650
H1080       H  0.48396700  0.90423329  0.83989766     0.06500
C1081       C  0.48335259  0.59682517  0.61542153     0.03530
C1082       C  0.48347925  0.58685072  0.65061515    -0.12620
C1083       C  0.48552387  0.61183883  0.67656827     0.01030
C1084       C  0.48685151  0.64685482  0.66764222    -0.11140
C1085       C  0.48615715  0.65727042  0.63297179     0.03530
C1086       C  0.48437409  0.63235135  0.60682757    -0.10560
H1087       H  0.48235740  0.55979914  0.65801879     0.09120
H1088       H  0.48800561  0.66618573  0.68785378     0.06650
H1089       H  0.48386732  0.64076926  0.58003128     0.06500
C1090       C  0.48511667  0.86538947  0.61464107     0.03530
C1091       C  0.48577429  0.87497070  0.64979398    -0.12620
C1092       C  0.48702257  0.84969154  0.67581250     0.01030
C1093       C  0.48686680  0.81473439  0.66707363    -0.11140
C1094       C  0.48571789  0.80469316  0.63243377     0.03530
C1095       C  0.48528834  0.82990797  0.60614823    -0.10560
H1096       H  0.48555669  0.90197679  0.65716077     0.09120
H1097       H  0.48721253  0.79521440  0.68736994     0.06650
H1098       H  0.48442885  0.82178385  0.57936903     0.06500
O1099       O  0.42677701  0.88363164  0.99760476    -0.79730
O1100       O  0.42500353  0.58076693  0.99923265    -0.81280
O1101       O  0.38485372  0.98045330  0.55497431    -0.78300
O1102       O  0.38515243  0.98306178  0.94127169    -0.76680
O1103       O  0.42581513  0.98312415  0.89857193    -0.78480
O1104       O  0.42568069  0.98005519  0.59808013    -0.79410
O1105       O  0.38347809  0.53885396  0.99925502    -0.80730
O1106       O  0.38473108  0.92554452  0.99741305    -0.81020
Eu1107     Eu  0.41295700  0.98236968  0.99838595     2.39200
O1108       O  0.44726949  0.51821660  0.96340539    -0.88530
O1109       O  0.44765013  0.94664246  0.53393716    -0.92140
C1110       C  0.39478994  0.89359896  0.99714844     1.02550
C1111       C  0.39314016  0.57078121  0.99952704     1.02370
C1112       C  0.39397609  0.98006258  0.58718177     1.02320
C1113       C  0.39412194  0.98263838  0.90915139     1.00170
H1114       H  0.43264244  0.53146357  0.54855079     0.29920
O1115       O  0.44729042  0.51730761  0.53415521    -1.00920
H1116       H  0.43378173  0.93334659  0.94874436     0.29960
O1117       O  0.44811865  0.94765591  0.96330976    -1.03460
O1118       O  0.03912236  0.58111757  0.00123354    -0.80690
O1119       O  0.04006874  0.88344054  0.99911243    -0.80230
O1120       O  0.48205150  0.53820629  0.59764565    -0.78660
O1121       O  0.48229406  0.54055013  0.90069342    -0.82000
O1122       O  0.48377410  0.92673613  0.90016832    -0.79860
O1123       O  0.48405316  0.92431791  0.59711932    -0.78510
O1124       O  0.07998031  0.98631386  0.55670040    -0.80030
O1125       O  0.08108148  0.98166281  0.94244832    -0.81950
O1126       O  0.03874896  0.98608405  0.59886993    -0.78690
O1127       O  0.03955901  0.98284857  0.89995240    -0.81370
O1128       O  0.48278269  0.58058956  0.55613462    -0.77100
O1129       O  0.48359414  0.88269294  0.55536816    -0.77130
O1130       O  0.48440959  0.88462553  0.94198619    -0.76780
O1131       O  0.48224186  0.58195192  0.94268611    -0.80270
O1132       O  0.08098254  0.53900605  0.00091292    -0.79700
O1133       O  0.08140920  0.92547948  0.00047676    -0.78030
Eu1134     Eu  0.48227026  0.55271162  0.99918418     2.39770
Eu1135     Eu  0.48334645  0.91229167  0.99887174     2.39570
Eu1136     Eu  0.48242692  0.98157520  0.56938611     2.38400
Eu1137     Eu  0.48266477  0.98337540  0.92837906     2.39880
Eu1138     Eu  0.05265930  0.98239316  0.99929814     2.39790
O1139       O  0.01791110  0.94773799  0.96374052    -0.92440
O1140       O  0.01703692  0.51672542  0.53414500    -0.91330
C1141       C  0.07107677  0.57095610  0.00183377     1.02730
C1142       C  0.07185986  0.89350271  0.00002141     1.01450
C1143       C  0.48259753  0.57022252  0.58796958     1.00840
C1144       C  0.48228795  0.57232120  0.91075717     1.02850
C1145       C  0.48435547  0.89479152  0.91010718     1.01770
C1146       C  0.48413248  0.89245365  0.58726870     1.00610
C1147       C  0.07045127  0.98785573  0.58865084     1.00670
C1148       C  0.07144290  0.98198745  0.91033435     1.03290
H1149       H  0.03311490  0.93258353  0.54926724     0.30660
O1150       O  0.01837499  0.94684284  0.53468515    -1.04600
H1151       H  0.03231940  0.53272070  0.94971813     0.32710
O1152       O  0.01779335  0.51818466  0.96385036    -1.07170
C1153       C  0.01453816  0.74981907  0.61713957    -0.11860
C1154       C  0.48371089  0.76748072  0.62467381     0.05140
C1155       C  0.45317303  0.74866996  0.63133163    -0.07150
C1156       C  0.45470009  0.71243038  0.63093924    -0.07890
C1157       C  0.48587313  0.69463823  0.62509080    -0.02450
C1158       C  0.01641825  0.71341255  0.61747131     0.04370
N1159       N  0.04961087  0.69669456  0.61194558     0.66880
H1160       H  0.03786459  0.76475270  0.61339870     0.15780
H1161       H  0.43167429  0.69773613  0.63701377     0.15490
N1162       N  0.42119574  0.76569750  0.64068432     0.74580
O1163       O  0.07523228  0.71420317  0.60198183    -0.38870
O1164       O  0.05419095  0.66486814  0.61799256    -0.38810
O1165       O  0.41462183  0.79623805  0.63076219    -0.39520
O1166       O  0.39842095  0.74953744  0.65749894    -0.39580
C1167       C  0.01642215  0.86177284  0.76835235    -0.11860
C1168       C  0.48440146  0.86076148  0.78516346     0.05140
C1169       C  0.45333023  0.86127901  0.76561045    -0.07150
C1170       C  0.45538887  0.86066053  0.72940237    -0.07890
C1171       C  0.48742507  0.85910950  0.71260865    -0.02450
C1172       C  0.01863243  0.86062370  0.73208900     0.04370
N1173       N  0.05241308  0.85898653  0.71609432     0.66880
H1174       H  0.03988552  0.86116079  0.78391455     0.15780
H1175       H  0.43179864  0.85945075  0.71407981     0.15490
N1176       N  0.41982029  0.86030730  0.78189118     0.74580
O1177       O  0.07936948  0.85558074  0.73454771    -0.38870
O1178       O  0.05594205  0.86241551  0.68380943    -0.38810
O1179       O  0.41524881  0.87355050  0.81130303    -0.39520
O1180       O  0.39392566  0.84855358  0.76574922    -0.39580
C1181       C  0.01357079  0.60481237  0.76952058    -0.11860
C1182       C  0.48134096  0.60711953  0.78588542     0.05140
C1183       C  0.45039912  0.60400782  0.76620719    -0.07150
C1184       C  0.45295205  0.60164822  0.73003800    -0.07890
C1185       C  0.48515148  0.60242440  0.71352478    -0.02450
C1186       C  0.01599408  0.60222711  0.73341777     0.04370
N1187       N  0.04964311  0.60093998  0.71740788     0.66880
H1188       H  0.03699548  0.60634251  0.78505515     0.15780
H1189       H  0.42957197  0.60187792  0.71433536     0.15490
N1190       N  0.41645485  0.60447459  0.78181076     0.74580
O1191       O  0.07615868  0.61103701  0.73369011    -0.38870
O1192       O  0.05361441  0.58666457  0.68838803    -0.38810
O1193       O  0.41156752  0.61720572  0.81139464    -0.39520
O1194       O  0.39064736  0.59299231  0.76532832    -0.39580
C1195       C  0.01654700  0.71421961  0.87085565    -0.11860
C1196       C  0.48484779  0.69747917  0.87586175     0.05140
C1197       C  0.45473971  0.71715344  0.88307386    -0.07150
C1198       C  0.45691764  0.75339971  0.88283227    -0.07890
C1199       C  0.48814578  0.77009920  0.87552540    -0.02450
C1200       C  0.01873050  0.75044347  0.87069141     0.04370
N1201       N  0.05160562  0.76671651  0.86414894     0.66880
H1202       H  0.03942970  0.69881908  0.86548392     0.15780
H1203       H  0.43369136  0.76882602  0.88648219     0.15490
N1204       N  0.42155996  0.70112533  0.88827122     0.74580
O1205       O  0.07546865  0.75026817  0.84910479    -0.38870
O1206       O  0.05804364  0.79645000  0.87581660    -0.38810
O1207       O  0.41934434  0.67230955  0.90359143    -0.39520
O1208       O  0.39402751  0.71726792  0.88046612    -0.39580
C1209       C  0.25147361  0.96571093  0.61190948    -0.11860
C1210       C  0.26882656  0.99736159  0.61487988     0.05140
C1211       C  0.24958656  0.52848120  0.61701635    -0.07150
C1212       C  0.21329780  0.52674746  0.61886688    -0.07890
C1213       C  0.19615617  0.99484942  0.61858975    -0.02450
C1214       C  0.21525812  0.96400495  0.61381906     0.04370
N1215       N  0.19870684  0.93076245  0.61382632     0.66880
H1216       H  0.26642353  0.94190847  0.61064626     0.15780
H1217       H  0.19829467  0.55026364  0.62228232     0.15490
N1218       N  0.26651163  0.56154191  0.61917240     0.74580
O1219       O  0.17090129  0.92620520  0.59714413    -0.38870
O1220       O  0.21333770  0.90508462  0.62818348    -0.38810
O1221       O  0.29600452  0.56595186  0.60597727    -0.39520
O1222       O  0.25103624  0.58719826  0.63215402    -0.39580
C1223       C  0.08592986  0.98137054  0.76814755    -0.11860
C1224       C  0.11097407  0.99976609  0.78695770     0.05140
C1225       C  0.13268263  0.02308668  0.76904822    -0.07150
C1226       C  0.13201323  0.02375238  0.73277644    -0.07890
C1227       C  0.11025851  0.00185233  0.71358315    -0.02450
C1228       C  0.08528117  0.98216361  0.73171813     0.04370
N1229       N  0.06060335  0.96107754  0.71398310     0.66880
H1230       H  0.06863072  0.96400052  0.78163776     0.15780
H1231       H  0.14949537  0.04093585  0.71930155     0.15490
N1232       N  0.15613756  0.04552470  0.78724025     0.74580
O1233       O  0.07073876  0.93668077  0.69493727    -0.38870
O1234       O  0.02872791  0.96434342  0.72040547    -0.38810
O1235       O  0.18452331  0.05416470  0.77373050    -0.39520
O1236       O  0.14753007  0.55877830  0.81572716    -0.39580
C1237       C  0.37858327  0.97679551  0.76789211    -0.11860
C1238       C  0.34695412  0.97057739  0.78519815     0.05140
C1239       C  0.31639953  0.96954285  0.76434875    -0.07150
C1240       C  0.31903646  0.96842060  0.72857808    -0.07890
C1241       C  0.34925359  0.97863178  0.71142120    -0.02450
C1242       C  0.37963605  0.98337974  0.73175572     0.04370
N1243       N  0.41088329  0.99688064  0.71705916     0.66880
H1244       H  0.40246224  0.97874330  0.78242164     0.15780
H1245       H  0.29559253  0.96304886  0.71413253     0.15490
N1246       N  0.28224703  0.97470456  0.77807259     0.74580
O1247       O  0.40959877  0.52339560  0.69783315    -0.38870
O1248       O  0.44001050  0.98614420  0.72780813    -0.38810
O1249       O  0.27600550  0.00080684  0.79656588    -0.39520
O1250       O  0.25729423  0.95656824  0.76741028    -0.39580
C1251       C  0.25427306  0.49539121  0.88381726    -0.11860
C1252       C  0.26928906  0.96233120  0.88213137     0.05140
C1253       C  0.24780740  0.93294218  0.88079943    -0.07150
C1254       C  0.21162185  0.93760342  0.87918939    -0.07890
C1255       C  0.19677111  0.97086492  0.87892117    -0.02450
C1256       C  0.21825494  0.50015554  0.88222147     0.04370
N1257       N  0.20413709  0.53479420  0.88178230     0.66880
H1258       H  0.27095239  0.51784498  0.88405001     0.15780
H1259       H  0.19498584  0.91531686  0.87636270     0.15490
N1260       N  0.26243679  0.89864761  0.87917111     0.74580
O1261       O  0.22182706  0.55963805  0.87023428    -0.38870
O1262       O  0.17521388  0.54124109  0.89545540    -0.38810
O1263       O  0.29124979  0.89183606  0.89341003    -0.39520
O1264       O  0.24635992  0.87479756  0.86388022    -0.39580
C1265       C  0.08570643  0.71354433  0.51351526    -0.11860
C1266       C  0.10941296  0.69520163  0.99309238     0.05140
C1267       C  0.13058591  0.71356919  0.96965655    -0.07150
C1268       C  0.13068189  0.74976440  0.97054886    -0.07890
C1269       C  0.11011236  0.76824018  0.99400460    -0.02450
C1270       C  0.08590836  0.74995045  0.51440237     0.04370
N1271       N  0.06301171  0.76743870  0.53767863     0.66880
H1272       H  0.06903751  0.69950960  0.53106775     0.15780
H1273       H  0.14788668  0.76376552  0.95348579     0.15490
N1274       N  0.15290311  0.69585046  0.94572338     0.74580
O1275       O  0.03176161  0.75825834  0.03968057    -0.38870
O1276       O  0.07460397  0.78939166  0.55878729    -0.38810
O1277       O  0.14381194  0.66745853  0.93258129    -0.39520
O1278       O  0.18058356  0.70976769  0.43559041    -0.39580
C1279       C  0.21265501  0.58680747  0.99142797    -0.11860
C1280       C  0.19583363  0.60359474  0.01871864     0.05140
C1281       C  0.21571088  0.61821495  0.54574598    -0.07150
C1282       C  0.25185370  0.61976539  0.54226636    -0.07890
C1283       C  0.26841001  0.60629420  0.01303655    -0.02450
C1284       C  0.24880974  0.58816269  0.98811720     0.04370
N1285       N  0.26461808  0.57318041  0.95814319     0.66880
H1286       H  0.19738190  0.57558127  0.97074444     0.15780
H1287       H  0.26723795  0.63254785  0.56190063     0.15490
N1288       N  0.19947617  0.63251251  0.57601358     0.74580
O1289       O  0.25380485  0.54465948  0.94679257    -0.38870
O1290       O  0.28662720  0.58984903  0.94082776    -0.38810
O1291       O  0.17059273  0.62127746  0.58613950    -0.39520
O1292       O  0.21538153  0.65402904  0.59464685    -0.39580
C1293       C  0.21607205  0.86098409  0.53523154    -0.11860
C1294       C  0.19726195  0.86043236  0.00409371     0.05140
C1295       C  0.21486181  0.86112010  0.97227074    -0.07150
C1296       C  0.25107864  0.86042153  0.97227243    -0.07890
C1297       C  0.27004922  0.85908405  0.00328425    -0.02450
C1298       C  0.25255282  0.86018434  0.53542310     0.04370
N1299       N  0.27094022  0.85823820  0.56809230     0.66880
H1300       H  0.20210263  0.85995284  0.55944010     0.15780
H1301       H  0.26459829  0.85891010  0.94786045     0.15490
N1302       N  0.19631301  0.85951004  0.93993738     0.74580
O1303       O  0.25518978  0.84979969  0.59537402    -0.38870
O1304       O  0.30244028  0.86653090  0.57040322    -0.38810
O1305       O  0.16931666  0.87752556  0.93499030    -0.39520
O1306       O  0.20733526  0.84057111  0.91585195    -0.39580
C1307       C  0.37059421  0.71315756  0.52083131    -0.11860
C1308       C  0.35732909  0.69552426  0.99215313     0.05140
C1309       C  0.34700888  0.71428197  0.96220168    -0.07150
C1310       C  0.34860373  0.75060914  0.96271498    -0.07890
C1311       C  0.35978439  0.76836704  0.99229425    -0.02450
C1312       C  0.37167482  0.74940244  0.52143172     0.04370
N1313       N  0.38143367  0.76632425  0.55296223     0.66880
H1314       H  0.37806249  0.69863036  0.54381885     0.15780
H1315       H  0.33924943  0.76538275  0.94058894     0.15490
N1316       N  0.33337355  0.69715226  0.93198456     0.74580
O1317       O  0.37208363  0.75393509  0.58168752    -0.38870
O1318       O  0.40208290  0.79149395  0.55251451    -0.38810
O1319       O  0.34183604  0.66632558  0.92524633    -0.39520
O1320       O  0.31464330  0.71359276  0.91050241    -0.39580
C1321       C  0.86773213  0.36651302  0.49652861     0.03530
C1322       C  0.87683585  0.33122977  0.49343101    -0.12620
C1323       C  0.85128527  0.30560886  0.49476689     0.01030
C1324       C  0.81665395  0.31522769  0.99842346    -0.11140
C1325       C  0.80718256  0.35005149  0.00084332     0.03530
C1326       C  0.83260975  0.37565432  0.99960087    -0.10560
H1327       H  0.90366648  0.32353698  0.49030915     0.09120
H1328       H  0.79681067  0.29549698  0.99928897     0.06650
H1329       H  0.82480021  0.40254529  0.00155510     0.06500
C1330       C  0.86583566  0.09789995  0.50055787     0.03530
C1331       C  0.83094668  0.08902816  0.50634958    -0.12620
C1332       C  0.80524796  0.11480123  0.50755419     0.01030
C1333       C  0.81434048  0.14947348  0.50267427    -0.11140
C1334       C  0.84875683  0.15865835  0.49669850     0.03530
C1335       C  0.87450622  0.13301327  0.49604199    -0.10560
H1336       H  0.82364029  0.06225340  0.51010540     0.09120
H1337       H  0.79448141  0.16943779  0.50332835     0.06650
H1338       H  0.90110580  0.14054648  0.49159094     0.06500
C1339       C  0.59839408  0.09768375  0.50403536     0.03530
C1340       C  0.63306747  0.08790391  0.51097966    -0.12620
C1341       C  0.65888403  0.11299520  0.51397900     0.01030
C1342       C  0.65024360  0.14788382  0.50922190    -0.11140
C1343       C  0.61634475  0.15810311  0.50070930     0.03470
C1344       C  0.59024331  0.13304653  0.49900546    -0.10560
H1345       H  0.64011175  0.06090452  0.51433972     0.09120
H1346       H  0.67042611  0.16721145  0.51091482     0.06650
H1347       H  0.56396731  0.14105310  0.49279532     0.06500
C1348       C  0.59934192  0.36655009  0.50086693     0.03530
C1349       C  0.63429633  0.37615694  0.50470417    -0.12620
C1350       C  0.66040958  0.35100238  0.50490281     0.01030
C1351       C  0.65181401  0.31610129  0.50246249    -0.11140
C1352       C  0.61729808  0.30575230  0.49838075     0.03530
C1353       C  0.59107612  0.33116281  0.49728442    -0.10560
H1354       H  0.64147986  0.40314097  0.50655152     0.09120
H1355       H  0.67241492  0.29687898  0.50290841     0.06650
H1356       H  0.56445721  0.32334258  0.49330678     0.06500
C1357       C  0.86569633  0.47859671  0.38338321     0.03530
C1358       C  0.87171070  0.47764740  0.34726438    -0.12620
C1359       C  0.84528326  0.46640202  0.32424854     0.01030
C1360       C  0.81534974  0.45236432  0.33937329    -0.11140
C1361       C  0.80643567  0.46058633  0.37320643     0.03530
C1362       C  0.83174133  0.47347168  0.39536771    -0.10560
H1363       H  0.89664758  0.48566228  0.33775044     0.09120
H1364       H  0.79675918  0.43816987  0.32419993     0.06650
H1365       H  0.82499796  0.47834276  0.42208429     0.06500
C1366       C  0.59902501  0.48151756  0.38367881     0.03530
C1367       C  0.63360800  0.47418285  0.39338411    -0.12620
C1368       C  0.66001428  0.47496526  0.36877993     0.01030
C1369       C  0.65197568  0.48248700  0.33422630    -0.11140
C1370       C  0.61791190  0.49051593  0.32389272     0.03530
C1371       C  0.59136739  0.48940821  0.34865334    -0.10560
H1372       H  0.64029062  0.46859505  0.42013193     0.09120
H1373       H  0.67264861  0.48278326  0.31536500     0.06650
H1374       H  0.56506329  0.49565208  0.34077236     0.06500
C1375       C  0.59811192  0.49200751  0.11516827     0.03530
C1376       C  0.63298334  0.49195543  0.10481231    -0.12620
C1377       C  0.65956000  0.49418816  0.12925256     0.01030
C1378       C  0.65154590  0.49667857  0.16435053    -0.11140
C1379       C  0.61696327  0.49824316  0.17560383     0.03530
C1380       C  0.59024775  0.49631670  0.15058928    -0.10560
H1381       H  0.63976701  0.48983597  0.07773520     0.09120
H1382       H  0.67264869  0.49743847  0.18298463     0.06650
H1383       H  0.56349956  0.49834433  0.15856485     0.06500
C1384       C  0.86577018  0.48171855  0.11299293     0.03530
C1385       C  0.87235044  0.47820807  0.14896494    -0.12620
C1386       C  0.84603254  0.48565660  0.17311225     0.01030
C1387       C  0.81379852  0.49746667  0.16017298    -0.11140
C1388       C  0.80568237  0.49580465  0.12510311     0.03530
C1389       C  0.83161263  0.48821874  0.10145663    -0.10560
H1390       H  0.89756289  0.46940014  0.15780985     0.09120
H1391       H  0.79349667  0.50561435  0.17759654     0.06650
H1392       H  0.82508881  0.48817783  0.07413761     0.06500
C1393       C  0.98243612  0.09954203  0.38370100     0.03530
C1394       C  0.98375691  0.13476833  0.39278343    -0.12620
C1395       C  0.98305654  0.16046733  0.36708193     0.01030
C1396       C  0.98212868  0.15104743  0.33219259    -0.11140
C1397       C  0.98129882  0.11618277  0.32281784     0.03530
C1398       C  0.98138520  0.09050235  0.34843879    -0.10560
H1399       H  0.98507869  0.14239350  0.41969844     0.09120
H1400       H  0.98218834  0.17091685  0.31224945     0.06650
H1401       H  0.98070375  0.06361382  0.34070375     0.06500
C1402       C  0.98486825  0.36787808  0.38303279     0.03530
C1403       C  0.98569433  0.33252481  0.39223429    -0.12620
C1404       C  0.98669338  0.30714269  0.36659437     0.01030
C1405       C  0.98592802  0.31683662  0.33171504    -0.11140
C1406       C  0.98457908  0.35174232  0.32219848     0.03530
C1407       C  0.98454636  0.37725996  0.34772070    -0.10560
H1408       H  0.98601744  0.32457260  0.41917393     0.09120
H1409       H  0.98642510  0.29711080  0.31186881     0.06650
H1410       H  0.98396559  0.40422642  0.33989665     0.06500
C1411       C  0.98335250  0.09682570  0.11542344     0.03530
C1412       C  0.98347913  0.08685144  0.15061738    -0.12620
C1413       C  0.98552362  0.11183974  0.17657078     0.01030
C1414       C  0.98685134  0.14685573  0.16764422    -0.11140
C1415       C  0.98615727  0.15727116  0.13297356     0.03530
C1416       C  0.98437417  0.13235187  0.10682950    -0.10560
H1417       H  0.98235726  0.05979987  0.15802099     0.09120
H1418       H  0.98800539  0.16618683  0.18785557     0.06650
H1419       H  0.98386745  0.14076966  0.08003316     0.06500
C1420       C  0.98511997  0.36539219  0.11463923     0.03530
C1421       C  0.98577519  0.37497228  0.14979260    -0.12620
C1422       C  0.98702172  0.34969252  0.17581059     0.01030
C1423       C  0.98686535  0.31473563  0.16707088    -0.11140
C1424       C  0.98571699  0.30469498  0.13243077     0.03530
C1425       C  0.98528963  0.32991065  0.10614555    -0.10560
H1426       H  0.98555903  0.40197814  0.15716022     0.09120
H1427       H  0.98721033  0.29521526  0.18736683     0.06650
H1428       H  0.98443132  0.32178738  0.07936607     0.06500
O1429       O  0.92676982  0.38362466  0.49760465    -0.79730
O1430       O  0.92500010  0.08075301  0.49923281    -0.81280
O1431       O  0.88486016  0.48044862  0.05496955    -0.78300
O1432       O  0.88515146  0.48306016  0.44127054    -0.76680
O1433       O  0.92581364  0.48312016  0.39857023    -0.78480
O1434       O  0.92568637  0.48005601  0.09807627    -0.79410
O1435       O  0.88346067  0.03885374  0.49925586    -0.80730
O1436       O  0.88472709  0.42554109  0.49741268    -0.81020
Eu1437     Eu  0.91295478  0.48236437  0.49838590     2.39200
O1438       O  0.94724842  0.01819887  0.46340565    -0.88530
O1439       O  0.94767609  0.44664194  0.03393201    -0.92140
C1440       C  0.89478424  0.39359508  0.49714803     1.02550
C1441       C  0.89313302  0.07077728  0.49952797     1.02370
C1442       C  0.89398153  0.48006072  0.08717757     1.02320
C1443       C  0.89412076  0.48263679  0.40915007     1.00170
H1444       H  0.93264187  0.03146213  0.04855124     0.29920
O1445       O  0.94729032  0.01730685  0.03415549    -1.00920
H1446       H  0.93377711  0.43334072  0.44874527     0.29960
O1447       O  0.94811541  0.44764810  0.46331123    -1.03460
O1448       O  0.53911787  0.08111314  0.50123271    -0.80690
O1449       O  0.54006722  0.38343907  0.49911184    -0.80230
O1450       O  0.98205190  0.03820674  0.09764682    -0.78660
O1451       O  0.98228841  0.04053119  0.40069681    -0.82000
O1452       O  0.98376984  0.42672741  0.40016656    -0.79860
O1453       O  0.98405691  0.42432172  0.09712052    -0.78510
O1454       O  0.57998743  0.48640891  0.05671193    -0.80030
O1455       O  0.58108194  0.48166116  0.44245252    -0.81950
O1456       O  0.53876147  0.48610796  0.09888589    -0.78690
O1457       O  0.53956008  0.48284719  0.39995609    -0.81370
O1458       O  0.98278139  0.08059021  0.05613582    -0.77100
O1459       O  0.98362079  0.38270025  0.05536628    -0.77130
O1460       O  0.98440302  0.38461567  0.44198379    -0.76780
O1461       O  0.98224767  0.08192956  0.44269200    -0.80270
O1462       O  0.58097438  0.03899832  0.50091409    -0.79700
O1463       O  0.58140759  0.42547804  0.50047690    -0.78030
Eu1464     Eu  0.98226138  0.05267842  0.49918462     2.39770
Eu1465     Eu  0.98333938  0.41227576  0.49887171     2.39570
Eu1466     Eu  0.98243812  0.48157858  0.06938740     2.38400
Eu1467     Eu  0.98266175  0.48336530  0.42837776     2.39880
Eu1468     Eu  0.55265739  0.48239140  0.49929830     2.39790
O1469       O  0.51790961  0.44773643  0.46374016    -0.92440
O1470       O  0.51703741  0.01675115  0.03415019    -0.91330
C1471       C  0.57107178  0.07094996  0.50183371     1.02730
C1472       C  0.57185835  0.39350126  0.50002119     1.01450
C1473       C  0.98259720  0.07022307  0.08797096     1.00840
C1474       C  0.98229135  0.07230215  0.41076218     1.02850
C1475       C  0.98435071  0.39478274  0.41010515     1.01770
C1476       C  0.98414375  0.39245821  0.08726786     1.00610
C1477       C  0.57046024  0.48791220  0.08866477     1.00670
C1478       C  0.57144370  0.48198593  0.41033894     1.03290
H1479       H  0.53318005  0.43264579  0.04926603     0.30660
O1480       O  0.51843156  0.44689614  0.03468368    -1.04600
H1481       H  0.53231213  0.03271467  0.44971702     0.32710
O1482       O  0.51778411  0.01818018  0.46384881    -1.07170
C1483       C  0.51453726  0.24982314  0.11712656    -0.11860
C1484       C  0.98370995  0.26748211  0.12467096     0.05140
C1485       C  0.95317259  0.24867099  0.13133073    -0.07150
C1486       C  0.95470009  0.21243132  0.13093986    -0.07890
C1487       C  0.98587314  0.19463910  0.12509188    -0.02450
C1488       C  0.51641882  0.21341641  0.11746624     0.04370
N1489       N  0.54961142  0.19669873  0.11194006     0.66880
H1490       H  0.53786254  0.26475675  0.11337589     0.15780
H1491       H  0.93167455  0.19773705  0.13701534     0.15490
N1492       N  0.92119536  0.26569828  0.14068414     0.74580
O1493       O  0.57523140  0.21420723  0.10197226    -0.38870
O1494       O  0.55419327  0.16487338  0.11799184    -0.38810
O1495       O  0.91462118  0.29623899  0.13076271    -0.39520
O1496       O  0.89842090  0.24953790  0.15749891    -0.39580
C1497       C  0.51642072  0.36177418  0.26834241    -0.11860
C1498       C  0.98440137  0.36075708  0.28516202     0.05140
C1499       C  0.95333007  0.36127714  0.26560929    -0.07150
C1500       C  0.95538845  0.36066039  0.22940114    -0.07890
C1501       C  0.98742456  0.35910952  0.21260713    -0.02450
C1502       C  0.51863078  0.36062895  0.23207844     0.04370
N1503       N  0.55241173  0.35898971  0.21608428     0.66880
H1504       H  0.53988424  0.36115984  0.28390426     0.15780
H1505       H  0.93179807  0.35945189  0.21407868     0.15490
N1506       N  0.91982025  0.36030631  0.28189030     0.74580
O1507       O  0.57936742  0.35558076  0.23453812    -0.38870
O1508       O  0.55594195  0.36241809  0.18379950    -0.38810
O1509       O  0.91524935  0.37354990  0.31130207    -0.39520
O1510       O  0.89392516  0.34855341  0.26574849    -0.39580
C1511       C  0.51357109  0.10481149  0.26952235    -0.11860
C1512       C  0.98134238  0.10711323  0.28589048     0.05140
C1513       C  0.95040016  0.10400590  0.26621176    -0.07150
C1514       C  0.95295240  0.10164964  0.23004203    -0.07890
C1515       C  0.98515146  0.10242552  0.21352798    -0.02450
C1516       C  0.51599436  0.10222711  0.23341955     0.04370
N1517       N  0.54964327  0.10093989  0.21740940     0.66880
H1518       H  0.53699578  0.10634118  0.28505696     0.15780
H1519       H  0.92957204  0.10188157  0.21433982     0.15490
N1520       N  0.91645604  0.10447343  0.28181548     0.74580
O1521       O  0.57615895  0.11103705  0.23369135    -0.38870
O1522       O  0.55361430  0.08666455  0.18838946    -0.38810
O1523       O  0.91156931  0.11720478  0.31139935    -0.39520
O1524       O  0.89064792  0.09299312  0.26533258    -0.39580
C1525       C  0.51654719  0.21421952  0.37085577    -0.11860
C1526       C  0.98485018  0.19746886  0.37587072     0.05140
C1527       C  0.95474085  0.21714412  0.38307702    -0.07150
C1528       C  0.95691758  0.25339080  0.38283063    -0.07890
C1529       C  0.98814515  0.27009084  0.37552306    -0.02450
C1530       C  0.51873030  0.25044358  0.37068900     0.04370
N1531       N  0.55160563  0.26671649  0.36414754     0.66880
H1532       H  0.53943023  0.19881892  0.36548560     0.15780
H1533       H  0.93369068  0.26881690  0.38647772     0.15490
N1534       N  0.92156088  0.20111637  0.38827353     0.74580
O1535       O  0.57546924  0.25026788  0.34910460    -0.38870
O1536       O  0.55804337  0.29644986  0.37581565    -0.38810
O1537       O  0.91934476  0.17230008  0.40359264    -0.39520
O1538       O  0.89402870  0.21725938  0.38046815    -0.39580
C1539       C  0.75147724  0.46570844  0.11190807    -0.11860
C1540       C  0.76883025  0.49735948  0.11487734     0.05140
C1541       C  0.74958709  0.02848116  0.11701617    -0.07150
C1542       C  0.71329866  0.02674677  0.11886955    -0.07890
C1543       C  0.69616203  0.49484622  0.11860205    -0.02450
C1544       C  0.71526209  0.46400199  0.11382390     0.04370
N1545       N  0.69870924  0.43076002  0.11382447     0.66880
H1546       H  0.76642727  0.44190638  0.11064027     0.15780
H1547       H  0.69829532  0.05026262  0.12228631     0.15490
N1548       N  0.76651179  0.06154214  0.11917173     0.74580
O1549       O  0.67089778  0.42621064  0.09714973    -0.38870
O1550       O  0.71334554  0.40507498  0.12816326    -0.38810
O1551       O  0.79600462  0.06595228  0.10597654    -0.39520
O1552       O  0.75103610  0.08719852  0.13215297    -0.39580
C1553       C  0.58593246  0.48137460  0.26815745    -0.11860
C1554       C  0.61097635  0.49976989  0.28696817     0.05140
C1555       C  0.63268736  0.52308932  0.26906047    -0.07150
C1556       C  0.63202217  0.52375262  0.23278936    -0.07890
C1557       C  0.61026759  0.50185320  0.21359643    -0.02450
C1558       C  0.58528708  0.48216649  0.23172850     0.04370
N1559       N  0.56060986  0.46108153  0.21399087     0.66880
H1560       H  0.56863183  0.46400541  0.28164685     0.15780
H1561       H  0.64950713  0.54093333  0.21931455     0.15490
N1562       N  0.65614133  0.54552731  0.28725370     0.74580
O1563       O  0.57074577  0.43668827  0.19494081    -0.38870
O1564       O  0.52873406  0.46434717  0.22041167    -0.38810
O1565       O  0.68452729  0.55416818  0.27374494    -0.39520
O1566       O  0.64752947  0.05877851  0.31572958    -0.39580
C1567       C  0.87858318  0.47679555  0.26789063    -0.11860
C1568       C  0.84695388  0.47057721  0.28519636     0.05140
C1569       C  0.81639965  0.46954234  0.26434646    -0.07150
C1570       C  0.81903714  0.46842007  0.22857559    -0.07890
C1571       C  0.84925487  0.47863053  0.21141879    -0.02450
C1572       C  0.87963658  0.48337924  0.23175409     0.04370
N1573       N  0.91088367  0.49688087  0.21705805     0.66880
H1574       H  0.90246188  0.47874396  0.28242050     0.15780
H1575       H  0.79559336  0.46304833  0.21412979     0.15490
N1576       N  0.78224694  0.47470344  0.27807010     0.74580
O1577       O  0.90959726  0.02339505  0.19783286    -0.38870
O1578       O  0.94001094  0.48614532  0.22780768    -0.38810
O1579       O  0.77600478  0.50080541  0.29656363    -0.39520
O1580       O  0.75729471  0.45656592  0.26740854    -0.39580
C1581       C  0.75426470  0.99538977  0.38381114    -0.11860
C1582       C  0.76928940  0.46233124  0.38213126     0.05140
C1583       C  0.74780809  0.43294202  0.38080134    -0.07150
C1584       C  0.71162258  0.43760291  0.37919446    -0.07890
C1585       C  0.69677179  0.47086429  0.37892742    -0.02450
C1586       C  0.71824711  0.00015442  0.38222021     0.04370
N1587       N  0.70413024  0.03479348  0.38178222     0.66880
H1588       H  0.77094433  0.01784337  0.38404242     0.15780
H1589       H  0.69498654  0.41531623  0.37636890     0.15490
N1590       N  0.76243764  0.39864763  0.37917201     0.74580
O1591       O  0.72182101  0.05963726  0.37023515    -0.38870
O1592       O  0.67520790  0.04124093  0.39545679    -0.38810
O1593       O  0.79125086  0.39183597  0.39341042    -0.39520
O1594       O  0.74636058  0.37479779  0.36388099    -0.39580
C1595       C  0.58569002  0.21369199  0.01352489    -0.11860
C1596       C  0.60941108  0.19519873  0.49309205     0.05140
C1597       C  0.63058515  0.21356675  0.46965713    -0.07150
C1598       C  0.63068165  0.24976213  0.47054983    -0.07890
C1599       C  0.61011200  0.26823824  0.49400514    -0.02450
C1600       C  0.58590877  0.25010291  0.01440618     0.04370
N1601       N  0.56299985  0.26760889  0.03766090     0.66880
H1602       H  0.56900840  0.19966799  0.03107316     0.15780
H1603       H  0.64788676  0.26376318  0.45348702     0.15490
N1604       N  0.65290276  0.19584843  0.44572405     0.74580
O1605       O  0.53176123  0.25825744  0.53968096    -0.38870
O1606       O  0.57457305  0.28960408  0.05873574    -0.38810
O1607       O  0.64381176  0.16745679  0.43258130    -0.39520
O1608       O  0.68056956  0.20987595  0.93560915    -0.39580
C1609       C  0.71265456  0.08680677  0.49142846    -0.11860
C1610       C  0.69583190  0.10359305  0.51871902     0.05140
C1611       C  0.71569130  0.11826516  0.04572808    -0.07150
C1612       C  0.75183798  0.11978116  0.04226319    -0.07890
C1613       C  0.76840826  0.10630069  0.51303444    -0.02450
C1614       C  0.74880920  0.08816553  0.48811665     0.04370
N1615       N  0.76461850  0.07318218  0.45814350     0.66880
H1616       H  0.69738212  0.07557814  0.47074580     0.15780
H1617       H  0.76722749  0.13254015  0.06190891     0.15490
N1618       N  0.69946145  0.13254521  0.07600579     0.74580
O1619       O  0.75380596  0.04466068  0.44679350    -0.38870
O1620       O  0.78662874  0.08984986  0.44082859    -0.38810
O1621       O  0.67057979  0.12130269  0.08612840    -0.39520
O1622       O  0.71537639  0.15403806  0.09465841    -0.39580
C1623       C  0.71621944  0.36099215  0.03525820    -0.11860
C1624       C  0.69726009  0.36043216  0.50409384     0.05140
C1625       C  0.71485989  0.36112002  0.47227082    -0.07150
C1626       C  0.75107645  0.36042116  0.47227261    -0.07890
C1627       C  0.77004645  0.35908286  0.50328451    -0.02450
C1628       C  0.75269928  0.36017384  0.03544439     0.04370
N1629       N  0.77109824  0.35823548  0.06810869     0.66880
H1630       H  0.70225337  0.35997742  0.05946920     0.15780
H1631       H  0.76459628  0.35890979  0.44786069     0.15490
N1632       N  0.69631136  0.35950989  0.43993737     0.74580
O1633       O  0.75535513  0.34981343  0.09539950    -0.38870
O1634       O  0.80260068  0.36652413  0.07040630    -0.38810
O1635       O  0.66931515  0.37752553  0.43499003    -0.39520
O1636       O  0.70733418  0.34057143  0.41585182    -0.39580
C1637       C  0.87061178  0.21312969  0.02083755    -0.11860
C1638       C  0.85733369  0.19552489  0.49215190     0.05140
C1639       C  0.84701121  0.21428225  0.46220095    -0.07150
C1640       C  0.84860357  0.25060924  0.46271473    -0.07890
C1641       C  0.85978277  0.26836697  0.49229433    -0.02450
C1642       C  0.87173071  0.24937219  0.02142964     0.04370
N1643       N  0.88147294  0.26629361  0.05296607     0.66880
H1644       H  0.87805286  0.19860037  0.04383233     0.15780
H1645       H  0.83924782  0.26538270  0.44058917     0.15490
N1646       N  0.83337492  0.19715232  0.43198441     0.74580
O1647       O  0.87209148  0.25391585  0.08168575    -0.38870
O1648       O  0.90210882  0.29147456  0.05253056    -0.38810
O1649       O  0.84183699  0.16632552  0.42524626    -0.39520
O1650       O  0.81464375  0.21359258  0.41050285    -0.39580
C1651       C  0.86783933  0.36648081  0.99651185     0.03530
C1652       C  0.87694792  0.33119939  0.99340436    -0.12620
C1653       C  0.85139762  0.30557941  0.99474768     0.01030
C1654       C  0.81653701  0.31525915  0.49842084    -0.11140
C1655       C  0.80705985  0.35008509  0.50083224     0.03530
C1656       C  0.83249594  0.37568837  0.49960254    -0.10560
H1657       H  0.90377826  0.32350818  0.99027551     0.09120
H1658       H  0.79669453  0.29552739  0.49927749     0.06650
H1659       H  0.82468957  0.40258042  0.50155121     0.06500
C1660       C  0.86582289  0.09788560  0.00056136     0.03530
C1661       C  0.83093129  0.08901871  0.00635349    -0.12620
C1662       C  0.80523598  0.11479736  0.00755776     0.01030
C1663       C  0.81433622  0.14946757  0.00267656    -0.11140
C1664       C  0.84875423  0.15864399  0.99670017     0.03530
C1665       C  0.87449809  0.13299590  0.99604379    -0.10560
H1666       H  0.82362114  0.06224506  0.01010903     0.09120
H1667       H  0.79448207  0.16943681  0.00332993     0.06650
H1668       H  0.90109871  0.14052562  0.99159229     0.06500
C1669       C  0.59836128  0.09778620  0.00402415     0.03530
C1670       C  0.63303862  0.08800779  0.01094785    -0.12620
C1671       C  0.65885679  0.11309672  0.01395401     0.01030
C1672       C  0.65021464  0.14799021  0.00922360    -0.11140
C1673       C  0.61631215  0.15821966  0.00072619     0.03470
C1674       C  0.59020782  0.13315772  0.99901916    -0.10560
H1675       H  0.64008610  0.06100716  0.01428943     0.09120
H1676       H  0.67040001  0.16731433  0.01092160     0.06650
H1677       H  0.56392914  0.14116541  0.99282339     0.06500
C1678       C  0.59949483  0.36670096  0.00087279     0.03530
C1679       C  0.63446010  0.37626657  0.00472093    -0.12620
C1680       C  0.66054067  0.35107403  0.00493203     0.01030
C1681       C  0.65189888  0.31618327  0.00249212    -0.11140
C1682       C  0.61737047  0.30587932  0.99839805     0.03530
C1683       C  0.59118736  0.33132442  0.99728566    -0.10560
H1684       H  0.64167432  0.40324262  0.00656681     0.09120
H1685       H  0.67247375  0.29693315  0.00294332     0.06650
H1686       H  0.56456101  0.32353577  0.99329522     0.06500
C1687       C  0.86570051  0.47859531  0.88338755     0.03530
C1688       C  0.87171383  0.47764672  0.84726815    -0.12620
C1689       C  0.84528493  0.46640394  0.82425216     0.01030
C1690       C  0.81535114  0.45236789  0.83937708    -0.11140
C1691       C  0.80643762  0.46059020  0.87321016     0.03530
C1692       C  0.83174460  0.47347321  0.89537196    -0.10560
H1693       H  0.89665121  0.48565965  0.83775392     0.09120
H1694       H  0.79676023  0.43817368  0.82420398     0.06650
H1695       H  0.82500187  0.47834410  0.92208870     0.06500
C1696       C  0.59903361  0.48154783  0.88366101     0.03530
C1697       C  0.63361357  0.47420442  0.89336722    -0.12620
C1698       C  0.66001873  0.47496954  0.86876211     0.01030
C1699       C  0.65198144  0.48248184  0.83420568    -0.11140
C1700       C  0.61791876  0.49051538  0.82387089     0.03530
C1701       C  0.59137553  0.48942480  0.84863302    -0.10560
H1702       H  0.64029523  0.46862458  0.92011694     0.09120
H1703       H  0.67265402  0.48276952  0.81534386     0.06650
H1704       H  0.56507275  0.49567380  0.84075139     0.06500
C1705       C  0.59810428  0.49196944  0.61514824     0.03530
C1706       C  0.63297626  0.49193073  0.60479138    -0.12620
C1707       C  0.65955276  0.49418919  0.62923043     0.01030
C1708       C  0.65153749  0.49669066  0.66432694    -0.11140
C1709       C  0.61695480  0.49824354  0.67558090     0.03530
C1710       C  0.59023966  0.49629432  0.65056739    -0.10560
H1711       H  0.63976036  0.48980246  0.57771515     0.09120
H1712       H  0.67264054  0.49746416  0.68295996     0.06650
H1713       H  0.56349090  0.49831484  0.65854226     0.06500
C1714       C  0.86576611  0.48172001  0.61299730     0.03530
C1715       C  0.87234718  0.47820897  0.64896870    -0.12620
C1716       C  0.84602995  0.48565764  0.67311610     0.01030
C1717       C  0.81379526  0.49746745  0.66017739    -0.11140
C1718       C  0.80567889  0.49580610  0.62510742     0.03530
C1719       C  0.83160887  0.48822048  0.60146111    -0.10560
H1720       H  0.89755969  0.46940060  0.65781307     0.09120
H1721       H  0.79349341  0.50561439  0.67760125     0.06650
H1722       H  0.82508483  0.48817983  0.57414211     0.06500
C1723       C  0.98243585  0.09954254  0.88370128     0.03530
C1724       C  0.98375663  0.13476892  0.89278360    -0.12620
C1725       C  0.98305634  0.16046797  0.86708205     0.01030
C1726       C  0.98212866  0.15104789  0.83219271    -0.11140
C1727       C  0.98129886  0.11618315  0.82281802     0.03530
C1728       C  0.98138519  0.09050279  0.84843908    -0.10560
H1729       H  0.98507827  0.14239412  0.91969860     0.09120
H1730       H  0.98218832  0.17091723  0.81224950     0.06650
H1731       H  0.98070373  0.06361423  0.84070410     0.06500
C1732       C  0.98487254  0.36788093  0.88303367     0.03530
C1733       C  0.98569630  0.33252764  0.89223639    -0.12620
C1734       C  0.98669281  0.30714438  0.86659702     0.01030
C1735       C  0.98592651  0.31683753  0.83171745    -0.11140
C1736       C  0.98457837  0.35174298  0.82219996     0.03530
C1737       C  0.98454785  0.37726139  0.84772128    -0.10560
H1738       H  0.98602065  0.32457647  0.91917631     0.09120
H1739       H  0.98642260  0.29711124  0.81187166     0.06650
H1740       H  0.98396872  0.40422758  0.83989622     0.06500
C1741       C  0.98335307  0.09682527  0.61542359     0.03530
C1742       C  0.98347949  0.08685103  0.65061755    -0.12620
C1743       C  0.98552385  0.11183935  0.67657093     0.01030
C1744       C  0.98685158  0.14685527  0.66764432    -0.11140
C1745       C  0.98615758  0.15727057  0.63297366     0.03530
C1746       C  0.98437465  0.13235137  0.60682960    -0.10560
H1747       H  0.98235763  0.05979946  0.65802119     0.09120
H1748       H  0.98800555  0.16618642  0.68785564     0.06650
H1749       H  0.98386804  0.14076916  0.58003326     0.06500
C1750       C  0.98511649  0.36538965  0.61464112     0.03530
C1751       C  0.98577410  0.37497087  0.64979404    -0.12620
C1752       C  0.98702247  0.34969169  0.67581251     0.01030
C1753       C  0.98686680  0.31473454  0.66707362    -0.11140
C1754       C  0.98571786  0.30469331  0.63243377     0.03530
C1755       C  0.98528823  0.32990815  0.60614825    -0.10560
H1756       H  0.98555643  0.40197696  0.65716085     0.09120
H1757       H  0.98721259  0.29521453  0.68736992     0.06650
H1758       H  0.98442873  0.32178404  0.57936905     0.06500
O1759       O  0.92685808  0.38360279  0.99759388    -0.79730
O1760       O  0.92498862  0.08074101  0.99923502    -0.81280
O1761       O  0.88485376  0.48045341  0.55497470    -0.78300
O1762       O  0.88515833  0.48305488  0.94127558    -0.76680
O1763       O  0.92581958  0.48311950  0.89857424    -0.78480
O1764       O  0.92568083  0.48005522  0.59808043    -0.79410
O1765       O  0.88344978  0.03884117  0.99925871    -0.80730
O1766       O  0.88480561  0.42550985  0.99740484    -0.81020
Eu1767     Eu  0.91297327  0.48236132  0.99838578     2.39200
O1768       O  0.94724687  0.01819735  0.96340585    -0.88530
O1769       O  0.94764984  0.44664271  0.53393712    -0.92140
C1770       C  0.89487485  0.39356717  0.99713552     1.02550
C1771       C  0.89312118  0.07076419  0.99953114     1.02370
C1772       C  0.89397623  0.48006261  0.58718218     1.02320
C1773       C  0.89412645  0.48263366  0.90915462     1.00170
H1774       H  0.93264357  0.03146447  0.54855094     0.29920
O1775       O  0.94729160  0.01730857  0.53415537    -1.00920
H1776       H  0.93380738  0.43334042  0.94874960     0.29960
O1777       O  0.94814297  0.44765023  0.96331573    -1.03460
O1778       O  0.53908586  0.08118799  0.00122070    -0.80690
O1779       O  0.54023263  0.38360515  0.99910692    -0.80230
O1780       O  0.98205227  0.03820644  0.59764710    -0.78660
O1781       O  0.98228859  0.04053162  0.90069729    -0.82000
O1782       O  0.98377348  0.42673167  0.90016422    -0.79860
O1783       O  0.98405298  0.42431810  0.59711935    -0.78510
O1784       O  0.57998007  0.48631278  0.55669705    -0.80030
O1785       O  0.58109538  0.48173847  0.94243569    -0.81950
O1786       O  0.53874928  0.48608373  0.59886698    -0.78690
O1787       O  0.53957235  0.48287425  0.89993955    -0.81370
O1788       O  0.98278345  0.08058970  0.55613604    -0.77100
O1789       O  0.98359385  0.38269314  0.55536819    -0.77130
O1790       O  0.98443332  0.38462311  0.94198402    -0.76780
O1791       O  0.98224533  0.08193015  0.94269242    -0.80270
O1792       O  0.58095086  0.03908221  0.00090996    -0.79700
O1793       O  0.58157657  0.42564028  0.00049193    -0.78030
Eu1794     Eu  0.98225813  0.05267829  0.99918478     2.39770
Eu1795     Eu  0.98338516  0.41228699  0.99887081     2.39570
Eu1796     Eu  0.98242672  0.48157537  0.56938609     2.38400
Eu1797     Eu  0.98267404  0.48336959  0.92837608     2.39880
Eu1798     Eu  0.55269364  0.48247202  0.99929712     2.39790
O1799       O  0.51796869  0.44779110  0.96373800    -0.92440
O1800       O  0.51703725  0.01672520  0.53414506    -0.91330
C1801       C  0.57104282  0.07103650  0.00182336     1.02730
C1802       C  0.57202584  0.39366624  0.00002615     1.01450
C1803       C  0.98259822  0.07022267  0.58797118     1.00840
C1804       C  0.98229054  0.07230266  0.91076258     1.02850
C1805       C  0.98436364  0.39478760  0.91010457     1.01770
C1806       C  0.98413225  0.39245384  0.58726874     1.00610
C1807       C  0.57045140  0.48785522  0.58864710     1.00670
C1808       C  0.57145541  0.48203377  0.91032211     1.03290
H1809       H  0.53311329  0.43258225  0.54926708     0.30660
O1810       O  0.51837317  0.44684136  0.53468500    -1.04600
H1811       H  0.53230806  0.03274044  0.94971111     0.32710
O1812       O  0.51778323  0.01820424  0.96384444    -1.07170
C1813       C  0.51453857  0.24981970  0.61714199    -0.11860
C1814       C  0.98371090  0.26748083  0.62467388     0.05140
C1815       C  0.95317311  0.24867002  0.63133189    -0.07150
C1816       C  0.95470034  0.21243044  0.63094009    -0.07890
C1817       C  0.98587347  0.19463832  0.62509209    -0.02450
C1818       C  0.51641845  0.21341309  0.61747219     0.04370
N1819       N  0.54961095  0.19669509  0.61194582     0.66880
H1820       H  0.53786506  0.26475335  0.61340157     0.15780
H1821       H  0.93167459  0.19773618  0.63701479     0.15490
N1822       N  0.92119573  0.26569755  0.64068429     0.74580
O1823       O  0.57523225  0.21420375  0.60198189    -0.38870
O1824       O  0.55419107  0.16486861  0.61799248    -0.38810
O1825       O  0.91462183  0.29623806  0.63076200    -0.39520
O1826       O  0.89842085  0.24953753  0.65749883    -0.39580
C1827       C  0.51642071  0.36177935  0.76835852    -0.11860
C1828       C  0.98440108  0.36075693  0.78516335     0.05140
C1829       C  0.95332995  0.36127697  0.76561041    -0.07150
C1830       C  0.95538865  0.36066026  0.72940233    -0.07890
C1831       C  0.98742493  0.35910943  0.71260868    -0.02450
C1832       C  0.51863101  0.36062653  0.73209500     0.04370
N1833       N  0.55241180  0.35898767  0.71610083     0.66880
H1834       H  0.53988422  0.36116939  0.78392056     0.15780
H1835       H  0.93179842  0.35945161  0.71407965     0.15490
N1836       N  0.91982001  0.36030618  0.78189114     0.74580
O1837       O  0.57936782  0.35558095  0.73455463    -0.38870
O1838       O  0.55594124  0.36241479  0.68381582    -0.38810
O1839       O  0.91524889  0.37354976  0.81130289    -0.39520
O1840       O  0.89392504  0.34855329  0.76574913    -0.39580
C1841       C  0.51357078  0.10481185  0.76951932    -0.11860
C1842       C  0.98134232  0.10711342  0.78589065     0.05140
C1843       C  0.95040006  0.10400665  0.76621183    -0.07150
C1844       C  0.95295236  0.10165022  0.73004211    -0.07890
C1845       C  0.98515147  0.10242528  0.71352814    -0.02450
C1846       C  0.51599419  0.10222655  0.73341668     0.04370
N1847       N  0.54964330  0.10093968  0.71740698     0.66880
H1848       H  0.53699537  0.10634195  0.78505405     0.15780
H1849       H  0.92957206  0.10188258  0.71433981     0.15490
N1850       N  0.91645587  0.10447483  0.78181540     0.74580
O1851       O  0.57615871  0.11103686  0.73368941    -0.38870
O1852       O  0.55361486  0.08666433  0.68838715    -0.38810
O1853       O  0.91156943  0.11720518  0.81139975    -0.39520
O1854       O  0.89064743  0.09299585  0.76533203    -0.39580
C1855       C  0.51654540  0.21422172  0.87085378    -0.11860
C1856       C  0.98484984  0.19746970  0.87587088     0.05140
C1857       C  0.95474063  0.21714486  0.88307798    -0.07150
C1858       C  0.95691736  0.25339168  0.88283290    -0.07890
C1859       C  0.98814487  0.27009219  0.87552579    -0.02450
C1860       C  0.51872940  0.25044572  0.87069212     0.04370
N1861       N  0.55160478  0.26671778  0.86414847     0.66880
H1862       H  0.53942786  0.19882126  0.86548080     0.15780
H1863       H  0.93369042  0.26881756  0.88648060     0.15490
N1864       N  0.92156067  0.20111695  0.88827392     0.74580
O1865       O  0.57546704  0.25026838  0.84910422    -0.38870
O1866       O  0.55804418  0.29645108  0.87581567    -0.38810
O1867       O  0.91934439  0.17230055  0.90359283    -0.39520
O1868       O  0.89402859  0.21725976  0.88046784    -0.39580
C1869       C  0.75147457  0.46570998  0.61190915    -0.11860
C1870       C  0.76882723  0.49736078  0.61487985     0.05140
C1871       C  0.74958707  0.02847852  0.61701629    -0.07150
C1872       C  0.71329833  0.02674515  0.61886733    -0.07890
C1873       C  0.69615680  0.49484878  0.61858388    -0.02450
C1874       C  0.71525900  0.46400403  0.61381627     0.04370
N1875       N  0.69870772  0.43076148  0.61382479     0.66880
H1876       H  0.76642462  0.44190750  0.61064766     0.15780
H1877       H  0.69829550  0.05026151  0.62228281     0.15490
N1878       N  0.76651254  0.06153904  0.61917259     0.74580
O1879       O  0.67090175  0.42620366  0.59714346    -0.38870
O1880       O  0.71333815  0.40508436  0.62818367    -0.38810
O1881       O  0.79600571  0.06594867  0.60597798    -0.39520
O1882       O  0.75103742  0.08719548  0.63215433    -0.39580
C1883       C  0.58593689  0.48137014  0.76813805    -0.11860
C1884       C  0.61098240  0.49976549  0.78694600     0.05140
C1885       C  0.63268827  0.52308830  0.76903745    -0.07150
C1886       C  0.63201561  0.52375669  0.73276626    -0.07890
C1887       C  0.61026023  0.50185621  0.71357423    -0.02450
C1888       C  0.58528462  0.48216574  0.73170939     0.04370
N1889       N  0.56060528  0.46108063  0.71397527     0.66880
H1890       H  0.56863928  0.46399926  0.78162920     0.15780
H1891       H  0.64949618  0.54094140  0.71929086     0.15490
N1892       N  0.65614298  0.54552589  0.78723017     0.74580
O1893       O  0.57073919  0.43668138  0.69493183    -0.38870
O1894       O  0.52873039  0.46434686  0.72040017    -0.38810
O1895       O  0.68452827  0.55416724  0.77372042    -0.39520
O1896       O  0.64752751  0.05878045  0.81572704    -0.39580
C1897       C  0.87858346  0.47679686  0.76789331    -0.11860
C1898       C  0.84695454  0.47057852  0.78519967     0.05140
C1899       C  0.81639995  0.46954240  0.76434987    -0.07150
C1900       C  0.81903711  0.46841936  0.72857913    -0.07890
C1901       C  0.84925392  0.47863107  0.71142211    -0.02450
C1902       C  0.87963614  0.48338010  0.73175668     0.04370
N1903       N  0.91088312  0.49688122  0.71705986     0.66880
H1904       H  0.90246232  0.47874592  0.78242279     0.15780
H1905       H  0.79559341  0.46304685  0.71413349     0.15490
N1906       N  0.78224705  0.47470369  0.77807295     0.74580
O1907       O  0.90959155  0.02339756  0.69783294    -0.38870
O1908       O  0.94001048  0.48614520  0.72780880    -0.38810
O1909       O  0.77600444  0.50080670  0.79656485    -0.39520
O1910       O  0.75729485  0.45656656  0.76741057    -0.39580
C1911       C  0.75426456  0.99539443  0.88381319    -0.11860
C1912       C  0.76929092  0.46233397  0.88213425     0.05140
C1913       C  0.74780967  0.43294478  0.88079594    -0.07150
C1914       C  0.71162464  0.43760588  0.87918127    -0.07890
C1915       C  0.69677429  0.47086712  0.87891413    -0.02450
C1916       C  0.71824701  0.00015865  0.88221982     0.04370
N1917       N  0.70412963  0.03479751  0.88178058     0.66880
H1918       H  0.77094387  0.01784828  0.88404619     0.15780
H1919       H  0.69498906  0.41531973  0.87634891     0.15490
N1920       N  0.76243913  0.39865055  0.87916233     0.74580
O1921       O  0.72182059  0.05964135  0.87023396    -0.38870
O1922       O  0.67520664  0.04124481  0.89545386    -0.38810
O1923       O  0.79125347  0.39183732  0.89339765    -0.39520
O1924       O  0.74636333  0.37480363  0.86386537    -0.39580
C1925       C  0.58570655  0.21354411  0.51351532    -0.11860
C1926       C  0.60938956  0.19532703  0.99310865     0.05140
C1927       C  0.63056953  0.21368770  0.96967015    -0.07150
C1928       C  0.63068177  0.24988342  0.97055599    -0.07890
C1929       C  0.61013199  0.26837451  0.99401376    -0.02450
C1930       C  0.58590838  0.24995023  0.51440251     0.04370
N1931       N  0.56301169  0.26743837  0.53767883     0.66880
H1932       H  0.56903769  0.19950929  0.53106781     0.15780
H1933       H  0.64789373  0.26387349  0.95349085     0.15490
N1934       N  0.65288500  0.19596259  0.94574151     0.74580
O1935       O  0.53175630  0.25840812  0.03967856    -0.38870
O1936       O  0.57460390  0.28939141  0.55878744    -0.38810
O1937       O  0.64378670  0.16757454  0.93259685    -0.39520
O1938       O  0.68058358  0.20976785  0.43559031    -0.39580
C1939       C  0.71262330  0.08688537  0.99139659    -0.11860
C1940       C  0.69580584  0.10368179  0.01868534     0.05140
C1941       C  0.71571129  0.11821419  0.54574553    -0.07150
C1942       C  0.75185412  0.11976467  0.54226596    -0.07890
C1943       C  0.76839104  0.10631033  0.01303383    -0.02450
C1944       C  0.74878280  0.08820024  0.98810490     0.04370
N1945       N  0.76459202  0.07319468  0.95814323     0.66880
H1946       H  0.69734837  0.07567508  0.97070573     0.15780
H1947       H  0.76723841  0.13254662  0.56190054     0.15490
N1948       N  0.69947661  0.13251102  0.57601350     0.74580
O1949       O  0.75377315  0.04466949  0.94680840    -0.38870
O1950       O  0.78661807  0.08984121  0.94082826    -0.38810
O1951       O  0.67059310  0.12127584  0.58613908    -0.39520
O1952       O  0.71538205  0.15402698  0.59464737    -0.39580
C1953       C  0.71607173  0.36098414  0.53523168    -0.11860
C1954       C  0.69740390  0.36045018  0.00412025     0.05140
C1955       C  0.71500134  0.36110647  0.97229450    -0.07150
C1956       C  0.75121369  0.36038997  0.97229304    -0.07890
C1957       C  0.77018128  0.35905460  0.00330263    -0.02450
C1958       C  0.75255250  0.36018434  0.53542321     0.04370
N1959       N  0.77093993  0.35823808  0.56809239     0.66880
H1960       H  0.70210234  0.35995280  0.55944025     0.15780
H1961       H  0.76473168  0.35886260  0.94788063     0.15490
N1962       N  0.69645444  0.35948123  0.93996199     0.74580
O1963       O  0.75518953  0.34979942  0.59537408    -0.38870
O1964       O  0.80243998  0.36653082  0.57040332    -0.38810
O1965       O  0.66947565  0.37751718  0.93499495    -0.39520
O1966       O  0.70747032  0.34051913  0.91589147    -0.39580
C1967       C  0.87059439  0.21315776  0.52083094    -0.11860
C1968       C  0.85734576  0.19550488  0.99215612     0.05140
C1969       C  0.84705205  0.21426419  0.96219739    -0.07150
C1970       C  0.84869509  0.25058755  0.96269826    -0.07890
C1971       C  0.85988418  0.26833936  0.99227736    -0.02450
C1972       C  0.87167483  0.24940264  0.52143146     0.04370
N1973       N  0.88143368  0.26632438  0.55296200     0.66880
H1974       H  0.87806280  0.19863052  0.54381840     0.15780
H1975       H  0.83936198  0.26536537  0.94056609     0.15490
N1976       N  0.83339037  0.19714333  0.93198744     0.74580
O1977       O  0.87208379  0.25393507  0.58168728    -0.38870
O1978       O  0.90208281  0.29149417  0.55251432    -0.38810
O1979       O  0.84182908  0.16631123  0.92524539    -0.39520
O1980       O  0.81465570  0.21359472  0.91051730    -0.39580
C1981       C  0.86773249  0.86651296  0.49652901     0.03530
C1982       C  0.87683612  0.83122969  0.49343137    -0.12620
C1983       C  0.85128546  0.80560885  0.49476713     0.01030
C1984       C  0.81653855  0.81525774  0.99842091    -0.11140
C1985       C  0.80706249  0.85008383  0.00083273     0.03530
C1986       C  0.83249870  0.87568652  0.99960292    -0.10560
H1987       H  0.90366674  0.82353683  0.49030957     0.09120
H1988       H  0.79669557  0.79552649  0.99927756     0.06650
H1989       H  0.82469263  0.90257867  0.00155176     0.06500
C1990       C  0.86583526  0.59789991  0.50055800     0.03530
C1991       C  0.83094630  0.58902813  0.50634987    -0.12620
C1992       C  0.80524755  0.61480119  0.50755461     0.01030
C1993       C  0.81434009  0.64947346  0.50267467    -0.11140
C1994       C  0.84875643  0.65865832  0.49669878     0.03530
C1995       C  0.87450581  0.63301323  0.49604213    -0.10560
H1996       H  0.82363994  0.56225337  0.51010572     0.09120
H1997       H  0.79448104  0.66943778  0.50332885     0.06650
H1998       H  0.90110537  0.64054644  0.49159097     0.06500
C1999       C  0.59839328  0.59768319  0.50403590     0.03530
C2000       C  0.63306672  0.58790334  0.51098033    -0.12620
C2001       C  0.65888338  0.61299465  0.51397967     0.01030
C2002       C  0.65024301  0.64788326  0.50922235    -0.11140
C2003       C  0.61634424  0.65810263  0.50070959     0.03470
C2004       C  0.59024270  0.63304606  0.49900581    -0.10560
H2005       H  0.64011089  0.56090394  0.51434051     0.09120
H2006       H  0.67042555  0.66721086  0.51091526     0.06650
H2007       H  0.56396675  0.64105270  0.49279559     0.06500
C2008       C  0.59934242  0.86655007  0.50086676     0.03530
C2009       C  0.63429687  0.87615670  0.50470399    -0.12620
C2010       C  0.66040997  0.85100206  0.50490260     0.01030
C2011       C  0.65181427  0.81610101  0.50246232    -0.11140
C2012       C  0.61729828  0.80575213  0.49838064     0.03530
C2013       C  0.59107640  0.83116281  0.49728432    -0.10560
H2014       H  0.64148057  0.90314068  0.50655138     0.09120
H2015       H  0.67241512  0.79687864  0.50290827     0.06650
H2016       H  0.56445742  0.82334276  0.49330673     0.06500
C2017       C  0.86569579  0.97859416  0.38338457     0.03530
C2018       C  0.87171012  0.97764822  0.34726576    -0.12620
C2019       C  0.84528315  0.96640368  0.32424939     0.01030
C2020       C  0.81534983  0.95236380  0.33937234    -0.11140
C2021       C  0.80643548  0.96058216  0.37320626     0.03530
C2022       C  0.83174099  0.97346605  0.39536885    -0.10560
H2023       H  0.89664621  0.98566587  0.33775188     0.09120
H2024       H  0.79675893  0.93817226  0.32419636     0.06650
H2025       H  0.82499753  0.97833448  0.42208588     0.06500
C2026       C  0.59902435  0.98151706  0.38367266     0.03530
C2027       C  0.63360744  0.97418219  0.39337729    -0.12620
C2028       C  0.66001353  0.97496327  0.36877271     0.01030
C2029       C  0.65197464  0.98248421  0.33421862    -0.11140
C2030       C  0.61791058  0.99051253  0.32388455     0.03530
C2031       C  0.59136634  0.98940595  0.34864633    -0.10560
H2032       H  0.64029038  0.96859510  0.42012519     0.09120
H2033       H  0.67264747  0.98277988  0.31535722     0.06650
H2034       H  0.56506208  0.99564934  0.34076559     0.06500
C2035       C  0.59810629  0.99197256  0.11515598     0.03530
C2036       C  0.63297837  0.99193311  0.10480055    -0.12620
C2037       C  0.65955407  0.99418914  0.12924015     0.01030
C2038       C  0.65153816  0.99668839  0.16433696    -0.11140
C2039       C  0.61695499  0.99824010  0.17559068     0.03530
C2040       C  0.59024046  0.99629300  0.15057572    -0.10560
H2041       H  0.63976345  0.98980723  0.07772436     0.09120
H2042       H  0.67264095  0.99746120  0.18297026     0.06650
H2043       H  0.56349139  0.99831352  0.15854959     0.06500
C2044       C  0.86576560  0.98172035  0.11299696     0.03530
C2045       C  0.87234600  0.97821129  0.14896858    -0.12620
C2046       C  0.84602902  0.98566367  0.17311515     0.01030
C2047       C  0.81379556  0.99747524  0.16017504    -0.11140
C2048       C  0.80567897  0.99581011  0.12510538     0.03530
C2049       C  0.83160865  0.98822092  0.10145989    -0.10560
H2050       H  0.89755780  0.96940158  0.15781354     0.09120
H2051       H  0.79349436  0.00562623  0.17759773     0.06650
H2052       H  0.82508476  0.98817801  0.07414089     0.06500
C2053       C  0.98243619  0.59954207  0.38370085     0.03530
C2054       C  0.98375698  0.63476836  0.39278329    -0.12620
C2055       C  0.98305658  0.66046735  0.36708180     0.01030
C2056       C  0.98212868  0.65104746  0.33219247    -0.11140
C2057       C  0.98129882  0.61618280  0.32281776     0.03530
C2058       C  0.98138525  0.59050238  0.34843868    -0.10560
H2059       H  0.98507878  0.64239353  0.41969830     0.09120
H2060       H  0.98218831  0.67091687  0.31224932     0.06650
H2061       H  0.98070379  0.56361386  0.34070363     0.06500
C2062       C  0.98486849  0.86787799  0.38303353     0.03530
C2063       C  0.98569456  0.83252470  0.39223499    -0.12620
C2064       C  0.98669351  0.80714264  0.36659500     0.01030
C2065       C  0.98592806  0.81683666  0.33171573    -0.11140
C2066       C  0.98457917  0.85174238  0.32219935     0.03530
C2067       C  0.98454655  0.87725995  0.34772153    -0.10560
H2068       H  0.98601771  0.82457245  0.41917461     0.09120
H2069       H  0.98642508  0.79711092  0.31186941     0.06650
H2070       H  0.98396582  0.90422642  0.33989750     0.06500
C2071       C  0.98335366  0.59682683  0.11542385     0.03530
C2072       C  0.98347966  0.58685222  0.15061767    -0.12620
C2073       C  0.98552385  0.61184024  0.17657119     0.01030
C2074       C  0.98685165  0.64685620  0.16764488    -0.11140
C2075       C  0.98615771  0.65727158  0.13297426     0.03530
C2076       C  0.98437486  0.63235277  0.10683005    -0.10560
H2077       H  0.98235797  0.55980059  0.15802114     0.09120
H2078       H  0.98800560  0.66618723  0.18785630     0.06650
H2079       H  0.98386854  0.64077075  0.08003375     0.06500
C2080       C  0.98511654  0.86538959  0.11464127     0.03530
C2081       C  0.98577409  0.87497084  0.14979414    -0.12620
C2082       C  0.98702247  0.84969168  0.17581254     0.01030
C2083       C  0.98686680  0.81473456  0.16707371    -0.11140
C2084       C  0.98571784  0.80469341  0.13243387     0.03530
C2085       C  0.98528825  0.82990816  0.10614837    -0.10560
H2086       H  0.98555644  0.90197692  0.15716096     0.09120
H2087       H  0.98721262  0.79521454  0.18737000     0.06650
H2088       H  0.98442877  0.82178403  0.07936917     0.06500
O2089       O  0.92677022  0.88362455  0.49760502    -0.79730
O2090       O  0.92499973  0.58075296  0.49923262    -0.81280
O2091       O  0.88485418  0.98045059  0.05497503    -0.78300
O2092       O  0.88515090  0.98305886  0.44127166    -0.76680
O2093       O  0.92581307  0.98311908  0.39857133    -0.78480
O2094       O  0.92568068  0.98005511  0.09808115    -0.79410
O2095       O  0.88346027  0.53885372  0.49925582    -0.80730
O2096       O  0.88472752  0.92554098  0.49741328    -0.81020
Eu2097     Eu  0.91295510  0.98236432  0.49838632     2.39200
O2098       O  0.94724827  0.51819883  0.46340533    -0.88530
O2099       O  0.94765048  0.94664055  0.03393858    -0.92140
C2100       C  0.89478465  0.89359498  0.49714851     1.02550
C2101       C  0.89313264  0.57077725  0.49952792     1.02370
C2102       C  0.89397621  0.98006148  0.08718254     1.02320
C2103       C  0.89412017  0.98263516  0.40915126     1.00170
H2104       H  0.93265103  0.53146389  0.04855075     0.29920
O2105       O  0.94730163  0.51730957  0.03415621    -1.00920
H2106       H  0.93377744  0.93334060  0.44874582     0.29960
O2107       O  0.94811572  0.94764808  0.46331170    -1.03460
O2108       O  0.53911683  0.58111271  0.50123311    -0.80690
O2109       O  0.54006790  0.88343996  0.49911197    -0.80230
O2110       O  0.98205757  0.53820860  0.09764770    -0.78660
O2111       O  0.98228856  0.54053126  0.40069661    -0.82000
O2112       O  0.98377011  0.92672730  0.40016715    -0.79860
O2113       O  0.98405300  0.92431789  0.09711965    -0.78510
O2114       O  0.57998621  0.98633930  0.05670107    -0.80030
O2115       O  0.58108211  0.98166151  0.44244831    -0.81950
O2116       O  0.53875271  0.98608764  0.09886897    -0.78690
O2117       O  0.53955959  0.98284779  0.39995240    -0.81370
O2118       O  0.98278604  0.58059164  0.05613623    -0.77100
O2119       O  0.98359449  0.88269290  0.05536848    -0.77130
O2120       O  0.98440331  0.88461558  0.44198441    -0.76780
O2121       O  0.98224748  0.58192963  0.44269180    -0.80270
O2122       O  0.58097291  0.53899760  0.50091484    -0.79700
O2123       O  0.58140901  0.92547824  0.50047644    -0.78030
Eu2124     Eu  0.98226111  0.55267843  0.49918430     2.39770
Eu2125     Eu  0.98333971  0.91227582  0.49887211     2.39570
Eu2126     Eu  0.98242664  0.98157511  0.06938672     2.38400
Eu2127     Eu  0.98266180  0.98336527  0.42837809     2.39880
Eu2128     Eu  0.55265987  0.98239206  0.49929778     2.39790
O2129       O  0.51791098  0.94773752  0.46374014    -0.92440
O2130       O  0.51705422  0.51677609  0.03415361    -0.91330
C2131       C  0.57107070  0.57094940  0.50183429     1.02730
C2132       C  0.57185920  0.89350162  0.50002101     1.01450
C2133       C  0.98260097  0.57022463  0.08797145     1.00840
C2134       C  0.98229136  0.57230221  0.41076199     1.02850
C2135       C  0.98435099  0.89478264  0.41010579     1.01770
C2136       C  0.98413249  0.89245367  0.08726899     1.00610
C2137       C  0.57045523  0.98786663  0.08865149     1.00670
C2138       C  0.57144346  0.98198627  0.41033440     1.03290
H2139       H  0.53312334  0.93261079  0.04925877     0.30660
O2140       O  0.51838307  0.94686934  0.03467628    -1.04600
H2141       H  0.53231107  0.53271424  0.44971736     0.32710
O2142       O  0.51778279  0.51817976  0.46384888    -1.07170
C2143       C  0.51453769  0.74982658  0.11713832    -0.11860
C2144       C  0.98371092  0.76748113  0.12467392     0.05140
C2145       C  0.95317311  0.74867038  0.13133191    -0.07150
C2146       C  0.95470041  0.71243092  0.13094028    -0.07890
C2147       C  0.98587363  0.69463901  0.12509260    -0.02450
C2148       C  0.51641847  0.71342028  0.11747520     0.04370
N2149       N  0.54961043  0.69670122  0.11194803     0.66880
H2150       H  0.53786369  0.76476008  0.11339411     0.15780
H2151       H  0.93167468  0.69773659  0.13701495     0.15490
N2152       N  0.92119568  0.76569783  0.14068426     0.74580
O2153       O  0.57523146  0.71420876  0.10198146    -0.38870
O2154       O  0.55418975  0.66487448  0.11799403    -0.38810
O2155       O  0.91462173  0.79623832  0.13076196    -0.39520
O2156       O  0.89842078  0.74953772  0.15749870    -0.39580
C2157       C  0.51642210  0.86177281  0.26835152    -0.11860
C2158       C  0.98440156  0.86075731  0.28516309     0.05140
C2159       C  0.95333030  0.86127726  0.26561033    -0.07150
C2160       C  0.95538883  0.86066044  0.22940228    -0.07890
C2161       C  0.98742506  0.85910949  0.21260858    -0.02450
C2162       C  0.51863233  0.86062552  0.23208803     0.04370
N2163       N  0.55241304  0.85898767  0.21609347     0.66880
H2164       H  0.53988548  0.86115970  0.28391367     0.15780
H2165       H  0.93179855  0.85945172  0.21407969     0.15490
N2166       N  0.91982042  0.86030627  0.28189121     0.74580
O2167       O  0.57936929  0.85558119  0.23454697    -0.38870
O2168       O  0.55594223  0.86241601  0.18380855    -0.38810
O2169       O  0.91524934  0.87354990  0.31130293    -0.39520
O2170       O  0.89392544  0.84855325  0.26574931    -0.39580
C2171       C  0.51357093  0.60481126  0.26952462    -0.11860
C2172       C  0.98134229  0.60711321  0.28589049     0.05140
C2173       C  0.95040003  0.60400665  0.26621169    -0.07150
C2174       C  0.95295234  0.60165047  0.23004202    -0.07890
C2175       C  0.98515147  0.60242571  0.21352816    -0.02450
C2176       C  0.51599398  0.60222837  0.23342180     0.04370
N2177       N  0.54964270  0.60094086  0.21741130     0.66880
H2178       H  0.53699568  0.60634014  0.28505924     0.15780
H2179       H  0.92957205  0.60188301  0.21433970     0.15490
N2180       N  0.91645584  0.60447489  0.28181526     0.74580
O2181       O  0.57615883  0.61103677  0.23369333    -0.38870
O2182       O  0.55361304  0.58666608  0.18839099    -0.38810
O2183       O  0.91156937  0.61720556  0.31139946    -0.39520
O2184       O  0.89064742  0.59299581  0.26533193    -0.39580
C2185       C  0.51654713  0.71421877  0.37085727    -0.11860
C2186       C  0.98485023  0.69746884  0.37587061     0.05140
C2187       C  0.95474091  0.71714407  0.38307704    -0.07150
C2188       C  0.95691768  0.75339074  0.38283093    -0.07890
C2189       C  0.98814527  0.77009078  0.37552350    -0.02450
C2190       C  0.51873047  0.75044275  0.37069176     0.04370
N2191       N  0.55160554  0.76671574  0.36414890     0.66880
H2192       H  0.53942993  0.69881822  0.36548602     0.15780
H2193       H  0.93369080  0.76881684  0.38647813     0.15490
N2194       N  0.92156092  0.70111632  0.38827344     0.74580
O2195       O  0.57546848  0.75026725  0.34910479    -0.38870
O2196       O  0.55804359  0.79644939  0.37581616    -0.38810
O2197       O  0.91934476  0.67229994  0.40359238    -0.39520
O2198       O  0.89402876  0.71725942  0.38046817    -0.39580
C2199       C  0.75147496  0.96571327  0.11190779    -0.11860
C2200       C  0.76882716  0.99736438  0.11487839     0.05140
C2201       C  0.74959065  0.52847647  0.11701810    -0.07150
C2202       C  0.71330293  0.52674235  0.11887633    -0.07890
C2203       C  0.69615763  0.99485023  0.11859224    -0.02450
C2204       C  0.71525970  0.96400642  0.11381904     0.04370
N2205       N  0.69870884  0.93076372  0.11382541     0.66880
H2206       H  0.76642532  0.94191118  0.11064334     0.15780
H2207       H  0.69830011  0.55025827  0.12229494     0.15490
N2208       N  0.76651516  0.56153754  0.11917287     0.74580
O2209       O  0.67090326  0.92620659  0.09714319    -0.38870
O2210       O  0.71333984  0.90508579  0.12818222    -0.38810
O2211       O  0.79600740  0.56594785  0.10597658    -0.39520
O2212       O  0.75103946  0.58719402  0.13215397    -0.39580
C2213       C  0.58592991  0.98137034  0.26814850    -0.11860
C2214       C  0.61097451  0.99976533  0.28695867     0.05140
C2215       C  0.63268344  0.02308583  0.26904958    -0.07150
C2216       C  0.63201392  0.02375200  0.23277800    -0.07890
C2217       C  0.61025925  0.00185204  0.21358476    -0.02450
C2218       C  0.58528140  0.98216365  0.23171921     0.04370
N2219       N  0.56060325  0.96107825  0.21398375     0.66880
H2220       H  0.56863048  0.96400047  0.28163853     0.15780
H2221       H  0.64949626  0.04093535  0.21930321     0.15490
N2222       N  0.65613919  0.04552288  0.28724171     0.74580
O2223       O  0.57073823  0.93668132  0.19493790    -0.38870
O2224       O  0.52872775  0.96434535  0.22040523    -0.38810
O2225       O  0.68452496  0.05416242  0.27373170    -0.39520
O2226       O  0.64752910  0.55878361  0.31574050    -0.39580
C2227       C  0.87858283  0.97679632  0.26789170    -0.11860
C2228       C  0.84695311  0.97058304  0.28519820     0.05140
C2229       C  0.81639754  0.96955560  0.26435024    -0.07150
C2230       C  0.81903282  0.96843388  0.22857947    -0.07890
C2231       C  0.84925167  0.97863888  0.21142158    -0.02450
C2232       C  0.87963559  0.98338136  0.23175546     0.04370
N2233       N  0.91088467  0.99687748  0.21705845     0.66880
H2234       H  0.90246253  0.97873893  0.28242095     0.15780
H2235       H  0.79558738  0.96306593  0.21413502     0.15490
N2236       N  0.78224671  0.97472230  0.27807659     0.74580
O2237       O  0.90959201  0.52339752  0.19783141    -0.38870
O2238       O  0.94001043  0.98613572  0.22780608    -0.38810
O2239       O  0.77601179  0.00082231  0.29657525    -0.39520
O2240       O  0.75728948  0.95659276  0.26741295    -0.39580
C2241       C  0.75426518  0.49539436  0.38381091    -0.11860
C2242       C  0.76928878  0.96232665  0.38213015     0.05140
C2243       C  0.74780708  0.93293780  0.38079663    -0.07150
C2244       C  0.71162159  0.93759935  0.37918711    -0.07890
C2245       C  0.69677113  0.97086098  0.37892081    -0.02450
C2246       C  0.71824749  0.50015844  0.38222253     0.04370
N2247       N  0.70413006  0.53479735  0.38178257     0.66880
H2248       H  0.77094458  0.51784818  0.38403944     0.15780
H2249       H  0.69498541  0.91531307  0.37635926     0.15490
N2250       N  0.76243636  0.89864328  0.37916626     0.74580
O2251       O  0.72182036  0.55964077  0.37023399    -0.38870
O2252       O  0.67520732  0.54124512  0.39545618    -0.38810
O2253       O  0.79124949  0.89183086  0.39340452    -0.39520
O2254       O  0.74635910  0.87479404  0.36387451    -0.39580
C2255       C  0.58571864  0.71358788  0.01351263    -0.11860
C2256       C  0.60941081  0.69519837  0.49309224     0.05140
C2257       C  0.63058510  0.71356630  0.46965741    -0.07150
C2258       C  0.63068177  0.74976171  0.47055002    -0.07890
C2259       C  0.61011210  0.76823802  0.49400517    -0.02450
C2260       C  0.58591277  0.74999183  0.01439502     0.04370
N2261       N  0.56301491  0.76747688  0.03767225     0.66880
H2262       H  0.56905379  0.69955161  0.03106788     0.15780
H2263       H  0.64788699  0.76376263  0.45348722     0.15490
N2264       N  0.65290276  0.69584787  0.44572444     0.74580
O2265       O  0.53176114  0.75825787  0.53968052    -0.38870
O2266       O  0.57460742  0.78942434  0.05878640    -0.38810
O2267       O  0.64381170  0.66745625  0.43258169    -0.39520
O2268       O  0.68059090  0.70980904  0.93558164    -0.39580
C2269       C  0.71265412  0.58680600  0.49142957    -0.11860
C2270       C  0.69583137  0.60359265  0.51871987     0.05140
C2271       C  0.71571698  0.61822947  0.04574896    -0.07150
C2272       C  0.75186065  0.61976630  0.04227230    -0.07890
C2273       C  0.76840782  0.60630064  0.51303504    -0.02450
C2274       C  0.74880877  0.58816490  0.48811766     0.04370
N2275       N  0.76461810  0.57318102  0.45814480     0.66880
H2276       H  0.69738172  0.57557691  0.47074714     0.15780
H2277       H  0.76724847  0.63253964  0.06190982     0.15490
N2278       N  0.69948505  0.63252228  0.07601998     0.74580
O2279       O  0.75380588  0.54465908  0.44679561    -0.38870
O2280       O  0.78662804  0.58984855  0.44082937    -0.38810
O2281       O  0.67060129  0.62128694  0.08614482    -0.39520
O2282       O  0.71539346  0.65403290  0.09465741    -0.39580
C2283       C  0.71607716  0.86100223  0.03523252    -0.11860
C2284       C  0.69726047  0.86043186  0.50409380     0.05140
C2285       C  0.71486034  0.86112037  0.47227085    -0.07150
C2286       C  0.75107691  0.86042180  0.47227275    -0.07890
C2287       C  0.77004680  0.85908305  0.50328470    -0.02450
C2288       C  0.75255722  0.86019103  0.03542366     0.04370
N2289       N  0.77094410  0.85823949  0.06809274     0.66880
H2290       H  0.70210771  0.85997587  0.05944130     0.15780
H2291       H  0.76459686  0.85891101  0.44786085     0.15490
N2292       N  0.69631194  0.85951067  0.43993729     0.74580
O2293       O  0.75519243  0.84980001  0.09537347    -0.38870
O2294       O  0.80244501  0.86652864  0.07040470    -0.38810
O2295       O  0.66931566  0.87752625  0.43499012    -0.39520
O2296       O  0.70733515  0.84057294  0.41585135    -0.39580
C2297       C  0.87059509  0.71315567  0.02083113    -0.11860
C2298       C  0.85733335  0.69552486  0.49215222     0.05140
C2299       C  0.84701106  0.71428223  0.46220122    -0.07150
C2300       C  0.84860360  0.75060922  0.46271497    -0.07890
C2301       C  0.85978283  0.76836692  0.49229457    -0.02450
C2302       C  0.87167523  0.74940067  0.02143166     0.04370
N2303       N  0.88143386  0.76632271  0.05296215     0.66880
H2304       H  0.87806341  0.69862857  0.04381870     0.15780
H2305       H  0.83924796  0.76538271  0.44058938     0.15490
N2306       N  0.83337481  0.69715234  0.43198464     0.74580
O2307       O  0.87208333  0.75393400  0.08168745    -0.38870
O2308       O  0.90208277  0.79149269  0.05251443    -0.38810
O2309       O  0.84183681  0.66632551  0.42524653    -0.39520
O2310       O  0.81464380  0.71359266  0.41050299    -0.39580
C2311       C  0.86773444  0.86651062  0.99652858     0.03530
C2312       C  0.87683765  0.83122736  0.99343070    -0.12620
C2313       C  0.85128660  0.80560687  0.99476670     0.01030
C2314       C  0.81653723  0.81525924  0.49842100    -0.11140
C2315       C  0.80706016  0.85008520  0.50083245     0.03530
C2316       C  0.83249632  0.87568840  0.49960287    -0.10560
H2317       H  0.90366816  0.82353428  0.99030869     0.09120
H2318       H  0.79669468  0.79552754  0.49927758     0.06650
H2319       H  0.82469001  0.90258047  0.50155158     0.06500
C2320       C  0.86583834  0.59789578  0.00055716     0.03530
C2321       C  0.83094929  0.58902439  0.00635010    -0.12620
C2322       C  0.80525104  0.61479832  0.00755622     0.01030
C2323       C  0.81434355  0.64947037  0.00267521    -0.11140
C2324       C  0.84875934  0.65865522  0.99669810     0.03530
C2325       C  0.87450859  0.63300968  0.99604093    -0.10560
H2326       H  0.82364287  0.56224972  0.01010629     0.09120
H2327       H  0.79448463  0.66943487  0.00333011     0.06650
H2328       H  0.90110798  0.64054305  0.99158928     0.06500
C2329       C  0.59839428  0.59774955  0.00404302     0.03530
C2330       C  0.63306565  0.58795976  0.01098550    -0.12620
C2331       C  0.65889014  0.61304167  0.01397860     0.01030
C2332       C  0.65025913  0.64793195  0.00921905    -0.11140
C2333       C  0.61636024  0.65815676  0.00071068     0.03470
C2334       C  0.59025166  0.63311016  0.99901276    -0.10560
H2335       H  0.64010335  0.56095890  0.01434719     0.09120
H2336       H  0.67044669  0.66725474  0.01090698     0.06650
H2337       H  0.56397686  0.64112236  0.99280413     0.06500
C2338       C  0.59935020  0.86658727  0.00086598     0.03530
C2339       C  0.63430487  0.87619049  0.00470657    -0.12620
C2340       C  0.66041462  0.85103236  0.00490596     0.01030
C2341       C  0.65181580  0.81613331  0.00246323    -0.11140
C2342       C  0.61730012  0.80579003  0.99837532     0.03530
C2343       C  0.59108091  0.83120161  0.99727958    -0.10560
H2344       H  0.64149098  0.90317366  0.00655531     0.09120
H2345       H  0.67241436  0.79690830  0.00290940     0.06650
H2346       H  0.56446183  0.82338322  0.99329872     0.06500
C2347       C  0.86569617  0.97859661  0.88338449     0.03530
C2348       C  0.87171048  0.97764732  0.84726576    -0.12620
C2349       C  0.84528305  0.96640187  0.82425016     0.01030
C2350       C  0.81534956  0.95236422  0.83937489    -0.11140
C2351       C  0.80643533  0.96058661  0.87320790     0.03530
C2352       C  0.83174110  0.97347191  0.89536913    -0.10560
H2353       H  0.89664736  0.98566214  0.83775174     0.09120
H2354       H  0.79675911  0.93816968  0.82420148     0.06650
H2355       H  0.82499786  0.97834302  0.92208572     0.06500
C2356       C  0.59902606  0.98152191  0.88367144     0.03530
C2357       C  0.63360880  0.97418606  0.89337564    -0.12620
C2358       C  0.66001439  0.97496616  0.86877081     0.01030
C2359       C  0.65197525  0.98248607  0.83421652    -0.11140
C2360       C  0.61791094  0.99051363  0.82388247     0.03530
C2361       C  0.59136710  0.98940812  0.84864475    -0.10560
H2362       H  0.64029207  0.96860023  0.92012374     0.09120
H2363       H  0.67264799  0.98278165  0.81535503     0.06650
H2364       H  0.56506280  0.99565196  0.84076450     0.06500
C2365       C  0.59810366  0.99196902  0.61515322     0.03530
C2366       C  0.63297576  0.99193132  0.60479716    -0.12620
C2367       C  0.65955200  0.99418920  0.62923662     0.01030
C2368       C  0.65153632  0.99668953  0.66433348    -0.11140
C2369       C  0.61695338  0.99824094  0.67558775     0.03530
C2370       C  0.59023856  0.99629193  0.65057306    -0.10560
H2371       H  0.63976023  0.98980427  0.57772091     0.09120
H2372       H  0.67263929  0.99746300  0.68296656     0.06650
H2373       H  0.56348961  0.99831133  0.65854749     0.06500
C2374       C  0.86576581  0.98172011  0.61299702     0.03530
C2375       C  0.87234687  0.97820929  0.64896836    -0.12620
C2376       C  0.84602971  0.98565838  0.67311559     0.01030
C2377       C  0.81379517  0.99746848  0.66017688    -0.11140
C2378       C  0.80567849  0.99580645  0.62510706     0.03530
C2379       C  0.83160846  0.98822041  0.60146075    -0.10560
H2380       H  0.89755930  0.96940076  0.65781282     0.09120
H2381       H  0.79349353  0.00561596  0.67760075     0.06650
H2382       H  0.82508440  0.98817944  0.57414177     0.06500
C2383       C  0.98243720  0.59954410  0.88369994     0.03530
C2384       C  0.98375746  0.63477017  0.89278226    -0.12620
C2385       C  0.98305640  0.66046880  0.86708069     0.01030
C2386       C  0.98212833  0.65104892  0.83219135    -0.11140
C2387       C  0.98129872  0.61618423  0.82281681     0.03530
C2388       C  0.98138570  0.59050408  0.84843786    -0.10560
H2389       H  0.98507973  0.64239547  0.91969722     0.09120
H2390       H  0.98218770  0.67091828  0.81224816     0.06650
H2391       H  0.98070459  0.56361549  0.84070293     0.06500
C2392       C  0.98486842  0.86787825  0.88303339     0.03530
C2393       C  0.98569447  0.83252503  0.89223486    -0.12620
C2394       C  0.98669346  0.80714306  0.86659489     0.01030
C2395       C  0.98592800  0.81683698  0.83171562    -0.11140
C2396       C  0.98457905  0.85174267  0.82219922     0.03530
C2397       C  0.98454641  0.87726024  0.84772140    -0.10560
H2398       H  0.98601764  0.82457273  0.91917447     0.09120
H2399       H  0.98642506  0.79711121  0.81186933     0.06650
H2400       H  0.98396567  0.90422671  0.83989738     0.06500
C2401       C  0.98335284  0.59682528  0.61542310     0.03530
C2402       C  0.98347931  0.58685100  0.65061700    -0.12620
C2403       C  0.98552376  0.61183928  0.67657036     0.01030
C2404       C  0.98685156  0.64685521  0.66764385    -0.11140
C2405       C  0.98615749  0.65727056  0.63297323     0.03530
C2406       C  0.98437445  0.63235139  0.60682913    -0.10560
H2407       H  0.98235741  0.55979943  0.65802063     0.09120
H2408       H  0.98800561  0.66618632  0.68785520     0.06650
H2409       H  0.98386780  0.64076923  0.58003280     0.06500
C2410       C  0.98511668  0.86538959  0.61464115     0.03530
C2411       C  0.98577428  0.87497080  0.64979402    -0.12620
C2412       C  0.98702260  0.84969163  0.67581243     0.01030
C2413       C  0.98686685  0.81473448  0.66707361    -0.11140
C2414       C  0.98571793  0.80469325  0.63243377     0.03530
C2415       C  0.98528837  0.82990809  0.60614826    -0.10560
H2416       H  0.98555666  0.90197688  0.65716085     0.09120
H2417       H  0.98721260  0.79521449  0.68736993     0.06650
H2418       H  0.98442888  0.82178399  0.57936906     0.06500
O2419       O  0.92677188  0.88362257  0.99760475    -0.79730
O2420       O  0.92500353  0.58075105  0.99923225    -0.81280
O2421       O  0.88485372  0.98045340  0.55497468    -0.78300
O2422       O  0.88515195  0.98305822  0.94127151    -0.76680
O2423       O  0.92581361  0.98312009  0.89857082    -0.78480
O2424       O  0.92568069  0.98005528  0.59808048    -0.79410
O2425       O  0.88346768  0.53884827  0.99925550    -0.80730
O2426       O  0.88472858  0.92553816  0.99741288    -0.81020
Eu2427     Eu  0.91295532  0.98236063  0.99838659     2.39200
O2428       O  0.94725850  0.51820035  0.96340364    -0.88530
O2429       O  0.94765010  0.94664265  0.53393756    -0.92140
C2430       C  0.89478624  0.89359250  0.99714809     1.02550
C2431       C  0.89313710  0.57077320  0.99952743     1.02370
C2432       C  0.89397610  0.98006265  0.58718212     1.02320
C2433       C  0.89412087  0.98263607  0.90915099     1.00170
H2434       H  0.93264330  0.53146445  0.54855064     0.29920
O2435       O  0.94729131  0.51730856  0.53415504    -1.00920
H2436       H  0.93377799  0.93333882  0.94874496     0.29960
O2437       O  0.94811611  0.94764633  0.96331097    -1.03460
O2438       O  0.53911400  0.58117945  0.00123853    -0.80690
O2439       O  0.54007871  0.88347277  0.99911145    -0.80230
O2440       O  0.98205201  0.53820648  0.59764662    -0.78660
O2441       O  0.98229499  0.54053404  0.90069506    -0.82000
O2442       O  0.98377001  0.92672742  0.90016713    -0.79860
O2443       O  0.98405316  0.92431804  0.59711953    -0.78510
O2444       O  0.57998040  0.98631359  0.55669997    -0.80030
O2445       O  0.58108866  0.98168857  0.94244797    -0.81950
O2446       O  0.53874901  0.98608384  0.59886947    -0.78690
O2447       O  0.53956268  0.98285134  0.89995442    -0.81370
O2448       O  0.98278319  0.58058976  0.55613560    -0.77100
O2449       O  0.98359415  0.88269310  0.55536836    -0.77130
O2450       O  0.98440380  0.88461554  0.94198427    -0.76780
O2451       O  0.98225033  0.58193175  0.94269096    -0.80270
O2452       O  0.58098047  0.53907666  0.00090815    -0.79700
O2453       O  0.58141651  0.92551637  0.00047570    -0.78030
Eu2454     Eu  0.98226758  0.55268115  0.99918416     2.39770
Eu2455     Eu  0.98334048  0.91227531  0.99887211     2.39570
Eu2456     Eu  0.98242692  0.98157539  0.56938647     2.38400
Eu2457     Eu  0.98266169  0.98336525  0.92837818     2.39880
Eu2458     Eu  0.55266913  0.98243508  0.99929805     2.39790
O2459       O  0.51791881  0.94776500  0.96375012    -0.92440
O2460       O  0.51703599  0.51672497  0.53414599    -0.91330
C2461       C  0.57107060  0.57102275  0.00183597     1.02730
C2462       C  0.57186836  0.89353849  0.00002027     1.01450
C2463       C  0.98259796  0.57022271  0.58797071     1.00840
C2464       C  0.98229476  0.57230460  0.91076099     1.02850
C2465       C  0.98435111  0.89478275  0.91010569     1.01770
C2466       C  0.98413248  0.89245379  0.58726888     1.00610
C2467       C  0.57045132  0.98785549  0.58865036     1.00670
C2468       C  0.57144728  0.98199818  0.91033474     1.03290
H2469       H  0.53311487  0.93258327  0.54926695     0.30660
O2470       O  0.51837498  0.94684260  0.53468483    -1.04600
H2471       H  0.53232082  0.53277179  0.94970520     0.32710
O2472       O  0.51780030  0.51823183  0.96383934    -1.07170
C2473       C  0.51453810  0.74981898  0.61713948    -0.11860
C2474       C  0.98371094  0.76748080  0.62467387     0.05140
C2475       C  0.95317313  0.74867001  0.63133185    -0.07150
C2476       C  0.95470031  0.71243044  0.63093988    -0.07890
C2477       C  0.98587341  0.69463831  0.62509176    -0.02450
C2478       C  0.51641809  0.71341246  0.61747091     0.04370
N2479       N  0.54961074  0.69669442  0.61194548     0.66880
H2480       H  0.53786459  0.76475258  0.61339885     0.15780
H2481       H  0.93167455  0.69773618  0.63701455     0.15490
N2482       N  0.92119578  0.76569755  0.64068436     0.74580
O2483       O  0.57523219  0.71420294  0.60198168    -0.38870
O2484       O  0.55419089  0.66486813  0.61799312    -0.38810
O2485       O  0.91462190  0.79623810  0.63076219    -0.39520
O2486       O  0.89842092  0.74953750  0.65749890    -0.39580
C2487       C  0.51642210  0.86177547  0.76835252    -0.11860
C2488       C  0.98440149  0.86075753  0.78516297     0.05140
C2489       C  0.95333026  0.86127743  0.76561017    -0.07150
C2490       C  0.95538886  0.86066052  0.72940212    -0.07890
C2491       C  0.98742512  0.85910950  0.71260848    -0.02450
C2492       C  0.51863235  0.86062445  0.73208914     0.04370
N2493       N  0.55241298  0.85898652  0.71609445     0.66880
H2494       H  0.53988553  0.86116420  0.78391464     0.15780
H2495       H  0.93179860  0.85945177  0.71407950     0.15490
N2496       N  0.91982035  0.86030648  0.78189102     0.74580
O2497       O  0.57936933  0.85558038  0.73454785    -0.38870
O2498       O  0.55594199  0.86241531  0.68380954    -0.38810
O2499       O  0.91524927  0.87355000  0.81130279    -0.39520
O2500       O  0.89392536  0.84855356  0.76574906    -0.39580
C2501       C  0.51357004  0.60481740  0.76951748    -0.11860
C2502       C  0.98134220  0.60711420  0.78588969     0.05140
C2503       C  0.95039993  0.60400700  0.76621104    -0.07150
C2504       C  0.95295225  0.60165016  0.73004139    -0.07890
C2505       C  0.98515139  0.60242517  0.71352748    -0.02450
C2506       C  0.51599398  0.60222885  0.73341520     0.04370
N2507       N  0.54964326  0.60094140  0.71740575     0.66880
H2508       H  0.53699433  0.60635001  0.78505237     0.15780
H2509       H  0.92957195  0.60188232  0.71433909     0.15490
N2510       N  0.91645578  0.60447513  0.78181471     0.74580
O2511       O  0.57615864  0.61103870  0.73368812    -0.38870
O2512       O  0.55361495  0.58666526  0.68838632    -0.38810
O2513       O  0.91156941  0.61720534  0.81139915    -0.39520
O2514       O  0.89064734  0.59299599  0.76533148    -0.39580
C2515       C  0.51654526  0.71422753  0.87084913    -0.11860
C2516       C  0.98485010  0.69746989  0.87586976     0.05140
C2517       C  0.95474084  0.71714485  0.88307675    -0.07150
C2518       C  0.95691763  0.75339144  0.88283095    -0.07890
C2519       C  0.98814526  0.77009139  0.87552347    -0.02450
C2520       C  0.51873029  0.75045089  0.87068985     0.04370
N2521       N  0.55160600  0.76672318  0.86414847     0.66880
H2522       H  0.53942711  0.69882652  0.86547512     0.15780
H2523       H  0.93369077  0.76881752  0.88647835     0.15490
N2524       N  0.92156096  0.70111690  0.88827332     0.74580
O2525       O  0.57546912  0.75027435  0.84910493    -0.38870
O2526       O  0.55804471  0.79645597  0.87581741    -0.38810
O2527       O  0.91934503  0.67230048  0.90359224    -0.39520
O2528       O  0.89402868  0.71725981  0.88046813    -0.39580
C2529       C  0.75147367  0.96571056  0.61190984    -0.11860
C2530       C  0.76882656  0.99736127  0.61488008     0.05140
C2531       C  0.74958770  0.52847809  0.61701463    -0.07150
C2532       C  0.71329891  0.52674481  0.61886283    -0.07890
C2533       C  0.69615618  0.99484909  0.61858946    -0.02450
C2534       C  0.71525817  0.96400458  0.61381919     0.04370
N2535       N  0.69870689  0.93076208  0.61382665     0.66880
H2536       H  0.76642360  0.94190811  0.61064689     0.15780
H2537       H  0.69829588  0.55026122  0.62227728     0.15490
N2538       N  0.76651297  0.56153861  0.61917222     0.74580
O2539       O  0.67090133  0.92620471  0.59714452    -0.38870
O2540       O  0.71333772  0.90508435  0.62818404    -0.38810
O2541       O  0.79600637  0.56594870  0.60597829    -0.39520
O2542       O  0.75103734  0.58719468  0.63215411    -0.39580
C2543       C  0.58592993  0.98137090  0.76814662    -0.11860
C2544       C  0.61097445  0.99976615  0.78695653     0.05140
C2545       C  0.63268278  0.02308698  0.76904719    -0.07150
C2546       C  0.63201312  0.02375294  0.73277547    -0.07890
C2547       C  0.61025831  0.00185287  0.71358229    -0.02450
C2548       C  0.58528095  0.98216423  0.73171729     0.04370
N2549       N  0.56060290  0.96107838  0.71398233     0.66880
H2550       H  0.56863085  0.96400085  0.78163689     0.15780
H2551       H  0.64949522  0.04093642  0.71930055     0.15490
N2552       N  0.65613779  0.04552484  0.78723931     0.74580
O2553       O  0.57073806  0.93668080  0.69493742    -0.38870
O2554       O  0.52872744  0.96434514  0.72040420    -0.38810
O2555       O  0.68452358  0.05416478  0.77372961    -0.39520
O2556       O  0.64753282  0.55877979  0.81571876    -0.39580
C2557       C  0.87858280  0.97679545  0.76789237    -0.11860
C2558       C  0.84695354  0.97057718  0.78519823     0.05140
C2559       C  0.81639912  0.96954236  0.76434868    -0.07150
C2560       C  0.81903628  0.96842003  0.72857807    -0.07890
C2561       C  0.84925342  0.97863153  0.71142138    -0.02450
C2562       C  0.87963574  0.98337972  0.73175602     0.04370
N2563       N  0.91088294  0.99688093  0.71705962     0.66880
H2564       H  0.90246169  0.97874342  0.78242200     0.15780
H2565       H  0.79559247  0.96304811  0.71413238     0.15490
N2566       N  0.78224655  0.97470398  0.77807234     0.74580
O2567       O  0.90959146  0.52339769  0.69783296    -0.38870
O2568       O  0.94001020  0.98614477  0.72780873    -0.38810
O2569       O  0.77600481  0.00080631  0.79656549    -0.39520
O2570       O  0.75729393  0.95656730  0.76741024    -0.39580
C2571       C  0.75426600  0.49539688  0.88381552    -0.11860
C2572       C  0.76928888  0.96233131  0.88213235     0.05140
C2573       C  0.74780750  0.93294220  0.88079925    -0.07150
C2574       C  0.71162218  0.93760337  0.87918806    -0.07890
C2575       C  0.69677167  0.97086484  0.87891955    -0.02450
C2576       C  0.71824849  0.50016077  0.88221965     0.04370
N2577       N  0.70413016  0.53479928  0.88178116     0.66880
H2578       H  0.77094499  0.51785090  0.88404989     0.15780
H2579       H  0.69498624  0.91531686  0.87636061     0.15490
N2580       N  0.76243706  0.89864767  0.87917125     0.74580
O2581       O  0.72181991  0.55964356  0.87023374    -0.38870
O2582       O  0.67520699  0.54124572  0.89545452    -0.38810
O2583       O  0.79124976  0.89183625  0.89341084    -0.39520
O2584       O  0.74636020  0.87479732  0.86388082    -0.39580
C2585       C  0.58570636  0.71354398  0.51351542    -0.11860
C2586       C  0.60942672  0.69524714  0.99309139     0.05140
C2587       C  0.63059336  0.71361230  0.96964952    -0.07150
C2588       C  0.63068234  0.74980689  0.97053624    -0.07890
C2589       C  0.61011211  0.76828022  0.99399385    -0.02450
C2590       C  0.58590840  0.74995013  0.51440252     0.04370
N2591       N  0.56301173  0.76743845  0.53767871     0.66880
H2592       H  0.56903736  0.69950930  0.53106788     0.15780
H2593       H  0.64788385  0.76380915  0.95347068     0.15490
N2594       N  0.65290944  0.69589187  0.94571649     0.74580
O2595       O  0.53176783  0.75828596  0.03968093    -0.38870
O2596       O  0.57460397  0.78939147  0.55878732    -0.38810
O2597       O  0.64381886  0.66749755  0.93257899    -0.39520
O2598       O  0.68058361  0.70976723  0.43559071    -0.39580
C2599       C  0.71265101  0.58683311  0.99142627    -0.11860
C2600       C  0.69583398  0.60362450  0.01871719     0.05140
C2601       C  0.71571081  0.61821442  0.54574605    -0.07150
C2602       C  0.75185365  0.61976505  0.54226634    -0.07890
C2603       C  0.76841117  0.60630089  0.01303910    -0.02450
C2604       C  0.74880668  0.58817539  0.98811848     0.04370
N2605       N  0.76461254  0.57318570  0.95814684     0.66880
H2606       H  0.69737525  0.57561308  0.97074128     0.15780
H2607       H  0.76723791  0.63254741  0.56190066     0.15490
N2608       N  0.69947619  0.63251172  0.57601383     0.74580
O2609       O  0.75379489  0.54466452  0.94680086    -0.38870
O2610       O  0.78662614  0.58984695  0.94083009    -0.38810
O2611       O  0.67059271  0.62127669  0.58613964    -0.39520
O2612       O  0.71538170  0.65402790  0.59464738    -0.39580
C2613       C  0.71607198  0.86098364  0.53523172    -0.11860
C2614       C  0.69726545  0.86045462  0.00409496     0.05140
C2615       C  0.71486440  0.86113049  0.97227123    -0.07150
C2616       C  0.75108054  0.86042246  0.97227278    -0.07890
C2617       C  0.77005023  0.85908361  0.00328478    -0.02450
C2618       C  0.75255275  0.86018408  0.53542337     0.04370
N2619       N  0.77094009  0.85823768  0.56809260     0.66880
H2620       H  0.70210250  0.85995198  0.55944023     0.15780
H2621       H  0.76459987  0.85890459  0.94786098     0.15490
N2622       N  0.69631481  0.85951554  0.93993831     0.74580
O2623       O  0.75518955  0.84979921  0.59537427    -0.38870
O2624       O  0.80244018  0.86653023  0.57040361    -0.38810
O2625       O  0.66931732  0.87752887  0.93498936    -0.39520
O2626       O  0.70733594  0.84057202  0.91585590    -0.39580
C2627       C  0.87059408  0.71315769  0.52083126    -0.11860
C2628       C  0.85733533  0.69552241  0.99215175     0.05140
C2629       C  0.84701196  0.71428012  0.96220111    -0.07150
C2630       C  0.84860409  0.75060715  0.96271499    -0.07890
C2631       C  0.85978346  0.76836489  0.99229442    -0.02450
C2632       C  0.87167473  0.74940256  0.52143174     0.04370
N2633       N  0.88143365  0.76632429  0.55296227     0.66880
H2634       H  0.87806239  0.69863043  0.54381876     0.15780
H2635       H  0.83924818  0.76538067  0.94058953     0.15490
N2636       N  0.83337510  0.69715058  0.93198463     0.74580
O2637       O  0.87208359  0.75393512  0.58168755    -0.38870
O2638       O  0.90208303  0.79149388  0.55251458    -0.38810
O2639       O  0.84183691  0.66632382  0.92524608    -0.39520
O2640       O  0.81464397  0.71359125  0.91050331    -0.39580
loop_ 
_geom_bond_atom_site_label_1 
_geom_bond_atom_site_label_2 
_geom_bond_distance 
_geom_bond_site_symmetry_2 
_ccdc_geom_bond_type 
C1            C2   1.412       .  A
C1          C336   1.409       .  A
C1          C120   1.483       .  S
C2            C3   1.403       .  A
C2            H7   1.083       .  S
C3          C334   1.398       .  A
C3          C321   1.478       .  S
C4            C5   1.396   1_556  A
C4          C333   1.398       .  A
C4            H8   1.085       .  S
C5            C6   1.399   1_554  A
C5          C637   1.472       .  S
C6          C331   1.409       .  A
C6            H9   1.084   1_556  S
C10          C11   1.411       .  A
C10          C15   1.410       .  A
C10         C121   1.482       .  S
C11          C12   1.402       .  A
C11          H16   1.084       .  S
C12          C13   1.399       .  A
C12         C293   1.478       .  S
C13          C14   1.398       .  A
C13          H17   1.085       .  S
C14          C15   1.400       .  A
C14         C318   1.475       .  S
C15          H18   1.084       .  S
C19          C20   1.412       .  A
C19          C24   1.413       .  A
C19         C151   1.484       .  S
C20          C21   1.400       .  A
C20          H25   1.084       .  S
C21          C22   1.398       .  A
C21         C290   1.479       .  S
C22          C23   1.401       .  A
C22          H26   1.085       .  S
C23          C24   1.403       .  A
C23         C276   1.484       .  S
C24          H27   1.083       .  S
C28          C29   1.409       .  A
C28          C33   1.414       .  A
C28         C152   1.482       .  S
C29          C30   1.396       .  A
C29          H34   1.084       .  S
C30          C31   1.395       .  A
C30         C304   1.471       .  S
C31          C32   1.402       .  A
C31          H35   1.085       .  S
C32          C33   1.406       .  A
C32         C279   1.488       .  S
C33          H36   1.083       .  S
C37          C38   1.417       .  A
C37          C42   1.408       .  A
C37         C123   1.486       .  S
C38          C39   1.421       .  A
C38          H43   1.079       .  S
C39          C40   1.409       .  A
C39         C248   1.518       .  S
C40          C41   1.392       .  A
C40          H44   1.078       .  S
C41          C42   1.391       .  A
C41         C262   1.478       .  S
C42          H45   1.084       .  S
C46          C47   1.411       .  A
C46          C51   1.414       .  A
C46         C158   1.487       .  S
C47          C48   1.399       .  A
C47          H52   1.084       .  S
C48          C49   1.397       .  A
C48         C265   1.477       .  S
C49          C50   1.404       .  A
C49          H53   1.084       .  S
C50          C51   1.407       .  A
C50         C234   1.491       .  S
C51          H54   1.083       .  S
C55          C56   1.407       .  A
C55          C60   1.414       .  A
C55         C157   1.484       .  S
C56          C57   1.393       .  A
C56          H61   1.084       .  S
C57          C58   1.397       .  A
C57         C223   1.475       .  S
C58          C59   1.408       .  A
C58          H62   1.084       .  S
C59          C60   1.411       .  A
C59         C237   1.500       .  S
C60          H63   1.082       .  S
C64          C65   1.417       .  A
C64          C69   1.409       .  A
C64         C122   1.483       .  S
C65          C66   1.413       .  A
C65          H70   1.081       .  S
C66          C67   1.410       .  A
C66         C251   1.507       .  S
C67          C68   1.391       .  A
C67          H71   1.083       .  S
C68          C69   1.391       .  A
C68         C220   1.474       .  S
C69          H72   1.083       .  S
C73          C74   1.409       .  A
C73          C78   1.409       .  A
C73         C154   1.479       .  S
C74          C75   1.400       .  A
C74          H79   1.084       .  S
C75          C76   1.399       .  A
C75         C206   1.474       .  S
C76          C77   1.398       .  A
C76          H80   1.085       .  S
C77          C78   1.398       .  A
C77         C192   1.471       .  S
C78          H81   1.084       .  S
C82          C83   1.410       .  A
C82          C87   1.410       .  A
C82         C155   1.480       .  S
C83          C84   1.399       .  A
C83          H88   1.083       .  S
C84          C85   1.397       .  A
C84         C209   1.472       .  S
C85          C86   1.397       .  A
C85          H89   1.085       .  S
C86          C87   1.399       .  A
C86         C178   1.471       .  S
C87          H90   1.084       .  S
C91          C92   1.411       .  A
C91          C96   1.412       .  A
C91         C153   1.482       .  S
C92          C93   1.399       .  A
C92          H97   1.084       .  S
C93          C94   1.396       .  A
C93         C195   1.472       .  S
C94          C95   1.396       .  A
C94          H98   1.085       .  S
C95          C96   1.402       .  A
C95         C167   1.474       .  S
C96          H99   1.083       .  S
C100        C101   1.410       .  A
C100        C105   1.412       .  A
C100        C156   1.483       .  S
C101        C102   1.398       .  A
C101        H106   1.084       .  S
C102        C103   1.395       .  A
C102        C181   1.470       .  S
C103        C104   1.396       .  A
C103        H107   1.085       .  S
C104        C105   1.403       .  A
C104        C164   1.473       .  S
C105        H108   1.083       .  S
O109        C120   1.291       .  A
O109       Eu145   2.455       .  S
O110        C121   1.292       .  A
O110       Eu144   2.456       .  S
O111        C122   1.291       .  A
O111       Eu447   2.448   1_554  S
O112        C123   1.291       .  A
O112       Eu117   2.447       .  S
O113        C123   1.293       .  A
O113       Eu147   2.471       .  S
O114        C122   1.291       .  A
O114       Eu146   2.463       .  S
O115        C121   1.291       .  A
O115       Eu777   2.456   1_545  S
O116        C120   1.292       .  A
O116       Eu117   2.458       .  S
Eu117       O441   2.448       .  S
Eu117       O775   2.456       .  S
Eu117       O127   2.346       .  S
Eu117       O449   2.348       .  S
Eu117       O778   2.350       .  S
Eu117      O1115   2.348       .  S
O118       Eu144   2.352       .  S
O118       Eu777   2.350   1_545  S
O118       Eu807   2.353   1_545  S
O119       Eu146   2.350       .  S
O119       Eu447   2.348   1_554  S
O119       Eu475   2.350   1_554  S
H124        O125   0.966       .  S
O125      Eu1107   2.348   1_544  S
O125       Eu806   2.351   1_545  S
O125       Eu474   2.354   1_554  S
H126        O127   0.966       .  S
O127       Eu145   2.352       .  S
O127       Eu147   2.352       .  S
O128        C151   1.292       .  A
O128      Eu1464   2.462   1_455  S
O129        C152   1.290       .  A
O129      Eu1465   2.450   1_455  S
O130        C153   1.291       .  A
O130       Eu806   2.452   1_545  S
O131        C154   1.290       .  A
O131       Eu807   2.449   1_545  S
O132        C155   1.291       .  A
O132       Eu147   2.452       .  S
O133        C156   1.291       .  A
O133       Eu146   2.453       .  S
O134        C157   1.292       .  A
O134       Eu478   2.455   1_554  S
O135        C158   1.293       .  A
O135       Eu148   2.462       .  S
O136        C157   1.290       .  A
O136      Eu1466   2.455   1_455  S
O137        C158   1.292       .  A
O137      Eu1467   2.462   1_455  S
O138        C153   1.291       .  A
O138       Eu474   2.457   1_554  S
O139        C156   1.291       .  A
O139       Eu475   2.458   1_554  S
O140        C155   1.291       .  A
O140       Eu145   2.451       .  S
O141        C154   1.291       .  A
O141       Eu144   2.452       .  S
O142        C151   1.291       .  A
O142       Eu808   2.453   1_545  S
O143        C152   1.292       .  A
O143       Eu148   2.457       .  S
Eu144      O1448   2.462       .  S
Eu144       O468   2.457       .  S
Eu144       O455   2.354       .  S
Eu144      O1482   2.355       .  S
Eu144      O1800   2.342       .  S
Eu145      O1449   2.450       .  S
Eu145       O469   2.458       .  S
Eu145       O449   2.350       .  S
Eu145      O1469   2.351       .  S
Eu145      O1810   2.355       .  S
Eu146       O790   2.452       .  S
Eu146      O1456   2.455       .  S
Eu146       O785   2.351       .  S
Eu146      O1480   2.356       .  S
Eu146      O2130   2.348       .  S
Eu147       O791   2.449       .  S
Eu147      O1457   2.462       .  S
Eu147       O778   2.353       .  S
Eu147      O1469   2.354       .  S
Eu147      O2142   2.355       .  S
Eu148       O464   2.455       .  S
Eu148       O802   2.453       .  S
Eu148       O149   2.345       .  S
Eu148       O490   2.352       .  S
Eu148       O822   2.351       .  S
Eu148      O1140   2.343       .  S
O149      Eu1465   2.351   1_455  S
O149      Eu1467   2.354   1_455  S
O150      Eu1794   2.342   1_454  S
O150      Eu2126   2.347   1_445  S
O150      Eu1138   2.343   1_544  S
H159        O160   0.966       .  S
O160      Eu1795   2.355   1_454  S
O160      Eu1466   2.356   1_455  S
O160       Eu478   2.352   1_554  S
H161        O162   0.966       .  S
O162      Eu1464   2.355   1_455  S
O162      Eu2127   2.355   1_445  S
O162       Eu808   2.351   1_545  S
C163        C168   1.409       .  A
C163       C1484   1.401   1_455  A
C163        H170   1.083       .  S
C164        C165   1.413       .  A
C164       C1483   1.401       .  A
C165        C166   1.402       .  A
C165        N172   1.444       .  S
C166        C167   1.402       .  A
C166        H171   1.084       .  S
C167       C1488   1.420       .  A
C168       C1487   1.420   1_455  A
C168        N169   1.449       .  S
N169        O173   1.263       .  A
N169        O174   1.262       .  A
N172        O175   1.263       .  A
N172        O176   1.263       .  A
C177        C182   1.405       .  A
C177       C1498   1.401   1_455  A
C177        H184   1.084       .  S
C178        C179   1.413       .  A
C178       C1497   1.401       .  A
C179        C180   1.402       .  A
C179        N186   1.443       .  S
C180        C181   1.402       .  A
C180        H185   1.084       .  S
C181       C1502   1.418       .  A
C182       C1501   1.418   1_455  A
C182        N183   1.448       .  S
N183        O187   1.263       .  A
N183        O188   1.262       .  A
N186        O189   1.262       .  A
N186        O190   1.263       .  A
C191        C196   1.403       .  A
C191       C1512   1.402   1_455  A
C191        H198   1.084       .  S
C192        C193   1.418       .  A
C192       C1511   1.402       .  A
C193        C194   1.405       .  A
C193        N200   1.446       .  S
C194        C195   1.401       .  A
C194        H199   1.084       .  S
C195       C1516   1.412       .  A
C196       C1515   1.412   1_455  A
C196        N197   1.443       .  S
N197        O201   1.263       .  A
N197        O202   1.263       .  A
N200        O203   1.262       .  A
N200        O204   1.263       .  A
C205        C210   1.403       .  A
C205       C1526   1.402   1_455  A
C205        H212   1.084       .  S
C206        C207   1.415       .  A
C206       C1525   1.402       .  A
C207        C208   1.404       .  A
C207        N214   1.441       .  S
C208        C209   1.401       .  A
C208        H213   1.084       .  S
C209       C1530   1.414       .  A
C210       C1529   1.414   1_455  A
C210        N211   1.443       .  S
N211        O215   1.263       .  A
N211        O216   1.263       .  A
N214        O217   1.262       .  A
N214        O218   1.263       .  A
C219        C220   1.403       .  A
C219        C224   1.402       .  A
C219        H226   1.084       .  S
C220        C881   1.413       .  A
C221        C222   1.405       .  A
C221        C880   1.413   1_545  A
C221        N228   1.441       .  S
C222        C883   1.403   1_545  A
C222        H227   1.084       .  S
C223        C224   1.411       .  A
C223        C882   1.403       .  A
C224        N225   1.439       .  S
N225        O229   1.262       .  A
N225        O230   1.262       .  A
N228        O231   1.263       .  A
N228        O232   1.263       .  A
C233        C234   1.405       .  A
C233        C238   1.408       .  A
C233        H240   1.084       .  S
C234        C235   1.415       .  A
C235        C236   1.402       .  A
C235        N242   1.440       .  S
C236        C237   1.407       .  A
C236        H241   1.083       .  S
C237        C238   1.418       .  A
C238        N239   1.431       .  S
N239        O243   1.262       .  A
N239        O244   1.262       .  A
N242        O245   1.263       .  A
N242        O906   1.263       .  A
O246        N902   1.263       .  A
C247        C248   1.417       .  A
C247        C252   1.419       .  A
C247        H254   1.079       .  S
C248        C249   1.425       .  A
C249        C250   1.387       .  A
C249        N256   1.437       .  S
C250        C251   1.403       .  A
C250        H255   1.082       .  S
C251        C252   1.421       .  A
C252        N253   1.436       .  S
N253        O258   1.263       .  A
N253        O917   1.263       .  A
N256        O259   1.263       .  A
N256        O260   1.263       .  A
O257        N913   1.263   1_545  A
C261        C266   1.402   1_565  A
C261        C922   1.402       .  A
C261        H268   1.084   1_565  S
C262        C263   1.412       .  A
C262        C921   1.402       .  A
C263        C264   1.408       .  A
C263        N270   1.439       .  S
C264        C265   1.404       .  A
C264        H269   1.083       .  S
C265        C926   1.413       .  A
C266        C925   1.413   1_545  A
C266        N267   1.442       .  S
N267        O271   1.263       .  A
N267        O272   1.262       .  A
N270        O273   1.263       .  A
N270        O274   1.262       .  A
C275        C280   1.408       .  A
C275        C606   1.404   1_554  A
C275        H282   1.084       .  S
C276        C277   1.415       .  A
C276        C605   1.404       .  A
C277        C278   1.400       .  A
C277        N284   1.441       .  S
C278        C279   1.404       .  A
C278        H283   1.084       .  S
C279        C610   1.416       .  A
C280        C609   1.416   1_554  A
C280        N281   1.434       .  S
N281        O286   1.262       .  A
N281        O615   1.262       .  A
N284        O287   1.263       .  A
N284        O618   1.263       .  A
O285        N611   1.262       .  A
O288        N614   1.263       .  A
C289        C290   1.402       .  A
C289        C294   1.404       .  A
C289        H296   1.084       .  S
C290        C621   1.414       .  A
C291        C292   1.404       .  A
C291        C620   1.414       .  A
C291        N298   1.442       .  S
C292        C623   1.403       .  A
C292        H297   1.084       .  S
C293        C294   1.413       .  A
C293        C622   1.403       .  A
C294        N295   1.436       .  S
N295        O299   1.261       .  A
N295        O300   1.263       .  A
N298        O301   1.263       .  A
N298        O302   1.263       .  A
C303        C308   1.408       .  A
C303        C634   1.401       .  A
C303        H310   1.084       .  S
C304        C305   1.409       .  A
C304        C633   1.401       .  A
C305        C306   1.398       .  A
C305        N312   1.437       .  S
C306        C307   1.400       .  A
C306        H311   1.083       .  S
C307        C638   1.418       .  A
C307        C335   1.472       .  S
C308        C637   1.418       .  A
C308        N309   1.445       .  S
N309        O313   1.263       .  A
N309        O314   1.262       .  A
N312        O315   1.262       .  A
N312        O316   1.262       .  A
C317        C322   1.402       .  A
C317        C648   1.400   1_554  A
C317        H324   1.084       .  S
C318        C319   1.415       .  A
C318        C647   1.400       .  A
C319        C320   1.406       .  A
C319        N326   1.444       .  S
C320        C321   1.404       .  A
C320        H325   1.084       .  S
C321        C652   1.412       .  A
C322        C651   1.412   1_554  A
C322        N323   1.435       .  S
N323        O327   1.262       .  A
N323        O328   1.262       .  A
N326        O329   1.263       .  A
N326        O330   1.263       .  A
C331        C332   1.412       .  A
C331        C450   1.484       .  S
C332        C333   1.403       .  A
C332        H337   1.083       .  S
C333        C651   1.478       .  S
C334        C335   1.396       .  A
C334        H338   1.085       .  S
C335        C336   1.399       .  A
C336        H339   1.084       .  S
C340        C341   1.411       .  A
C340        C345   1.410   1_554  A
C340        C451   1.482   1_554  S
C341        C342   1.402       .  A
C341        H346   1.084       .  S
C342        C343   1.399       .  A
C342        C623   1.478       .  S
C343        C344   1.398   1_554  A
C343        H347   1.085       .  S
C344        C345   1.400       .  A
C344        C648   1.475       .  S
C345        H348   1.084       .  S
C349        C350   1.412       .  A
C349        C354   1.413   1_554  A
C349        C481   1.484       .  S
C350        C351   1.400       .  A
C350        H355   1.084       .  S
C351        C352   1.398       .  A
C351        C620   1.479       .  S
C352        C353   1.401       .  A
C352        H356   1.085       .  S
C353        C354   1.403   1_554  A
C353        C606   1.484   1_554  S
C354        H357   1.083       .  S
C358        C359   1.409       .  A
C358        C363   1.414   1_554  A
C358        C482   1.482       .  S
C359        C360   1.396       .  A
C359        H364   1.084       .  S
C360        C361   1.395       .  A
C360        C634   1.471       .  S
C361        C362   1.402   1_554  A
C361        H365   1.085       .  S
C362        C363   1.406       .  A
C362        C609   1.488       .  S
C363        H366   1.083       .  S
C367        C368   1.417       .  A
C367        C372   1.408       .  A
C367        C453   1.486       .  S
C368        C369   1.421       .  A
C368        H373   1.079       .  S
C369        C370   1.409       .  A
C369        C578   1.518       .  S
C370        C371   1.392       .  A
C370        H374   1.078       .  S
C371        C372   1.391       .  A
C371        C592   1.478       .  S
C372        H375   1.084       .  S
C376        C377   1.411       .  A
C376        C381   1.414       .  A
C376        C488   1.487       .  S
C377        C378   1.399       .  A
C377        H382   1.084       .  S
C378        C379   1.397       .  A
C378        C595   1.477       .  S
C379        C380   1.404       .  A
C379        H383   1.084       .  S
C380        C381   1.407       .  A
C380        C564   1.491       .  S
C381        H384   1.083       .  S
C385        C386   1.407       .  A
C385        C390   1.415       .  A
C385        C487   1.484       .  S
C386        C387   1.393       .  A
C386        H391   1.084       .  S
C387        C388   1.397       .  A
C387        C553   1.475       .  S
C388        C389   1.408       .  A
C388        H392   1.084       .  S
C389        C390   1.411       .  A
C389        C567   1.500       .  S
C390        H393   1.082       .  S
C394        C395   1.417       .  A
C394        C399   1.409       .  A
C394        C452   1.483       .  S
C395        C396   1.413       .  A
C395        H400   1.081       .  S
C396        C397   1.410       .  A
C396        C581   1.507       .  S
C397        C398   1.391       .  A
C397        H401   1.083       .  S
C398        C399   1.391       .  A
C398        C550   1.474       .  S
C399        H402   1.083       .  S
C403        C404   1.409       .  A
C403        C408   1.409       .  A
C403        C484   1.479       .  S
C404        C405   1.400       .  A
C404        H409   1.084       .  S
C405        C406   1.399       .  A
C405        C536   1.474       .  S
C406        C407   1.398       .  A
C406        H410   1.085       .  S
C407        C408   1.398       .  A
C407        C522   1.471       .  S
C408        H411   1.084       .  S
C412        C413   1.410       .  A
C412        C417   1.410       .  A
C412        C485   1.480       .  S
C413        C414   1.399       .  A
C413        H418   1.083       .  S
C414        C415   1.397       .  A
C414        C539   1.472       .  S
C415        C416   1.397       .  A
C415        H419   1.085       .  S
C416        C417   1.399       .  A
C416        C508   1.471       .  S
C417        H420   1.084       .  S
C421        C422   1.411       .  A
C421        C426   1.412       .  A
C421        C483   1.482       .  S
C422        C423   1.399       .  A
C422        H427   1.084       .  S
C423        C424   1.396       .  A
C423        C525   1.472       .  S
C424        C425   1.396       .  A
C424        H428   1.085       .  S
C425        C426   1.402       .  A
C425        C497   1.474       .  S
C426        H429   1.083       .  S
C430        C431   1.410       .  A
C430        C435   1.412       .  A
C430        C486   1.483       .  S
C431        C432   1.398       .  A
C431        H436   1.084       .  S
C432        C433   1.395       .  A
C432        C511   1.470       .  S
C433        C434   1.396       .  A
C433        H437   1.085       .  S
C434        C435   1.403       .  A
C434        C494   1.473       .  S
C435        H438   1.083       .  S
O439        C450   1.291       .  A
O439       Eu475   2.455       .  S
O440        C451   1.291       .  A
O440       Eu474   2.456       .  S
O441        C452   1.291       .  A
O442        C453   1.291       .  A
O442       Eu447   2.447       .  S
O443        C453   1.293       .  A
O443       Eu477   2.471       .  S
O444        C452   1.291       .  A
O444       Eu476   2.463       .  S
O445        C451   1.291       .  A
O445      Eu1107   2.456   1_545  S
O446        C450   1.292       .  A
O446       Eu447   2.458       .  S
Eu447      O1105   2.457       .  S
Eu447       O457   2.346       .  S
Eu447      O1108   2.350       .  S
Eu447       O785   2.347   1_556  S
O448      Eu1107   2.350   1_545  S
O448      Eu1137   2.353   1_545  S
O448       Eu474   2.352       .  S
O449       Eu476   2.350       .  S
H454        O455   0.966       .  S
O455       Eu777   2.348   1_545  S
O455      Eu1136   2.351   1_545  S
H456        O457   0.966       .  S
O457       Eu475   2.352       .  S
O457       Eu477   2.352       .  S
O458        C481   1.292       .  A
O458      Eu1794   2.462   1_454  S
O459        C482   1.290   1_556  A
O459      Eu1795   2.450   1_455  S
O460        C483   1.291       .  A
O460      Eu1136   2.452   1_545  S
O461        C484   1.290       .  A
O461      Eu1137   2.449   1_545  S
O462        C485   1.291       .  A
O462       Eu477   2.452       .  S
O463        C486   1.291       .  A
O463       Eu476   2.453       .  S
O464        C487   1.292       .  A
O465        C488   1.293       .  A
O465       Eu478   2.462       .  S
O466        C487   1.290       .  A
O466      Eu1796   2.455   1_455  S
O467        C488   1.292       .  A
O467      Eu1797   2.462   1_455  S
O468        C483   1.291       .  A
O469        C486   1.291       .  A
O470        C485   1.291       .  A
O470       Eu475   2.450       .  S
O471        C484   1.291       .  A
O471       Eu474   2.452       .  S
O472        C481   1.291       .  A
O472      Eu1138   2.453   1_544  S
O473        C482   1.292       .  A
O473       Eu478   2.458   1_554  S
Eu474      O1778   2.462   1_556  S
Eu474      O1812   2.355       .  S
Eu474      O1470   2.342   1_556  S
Eu475      O1779   2.451       .  S
Eu475      O1799   2.351       .  S
Eu475      O1480   2.355   1_556  S
Eu476      O1120   2.452       .  S
Eu476      O1786   2.455       .  S
Eu476      O1115   2.351       .  S
Eu476      O1810   2.356       .  S
Eu476      O2460   2.347       .  S
Eu477      O1121   2.449       .  S
Eu477      O1787   2.462       .  S
Eu477      O1108   2.353       .  S
Eu477      O1799   2.354       .  S
Eu477      O2472   2.355       .  S
Eu478      O1132   2.453   1_556  S
Eu478       O479   2.345       .  S
Eu478      O1152   2.351       .  S
Eu478       O810   2.343   1_556  S
O479      Eu1795   2.351   1_455  S
O479      Eu1797   2.354   1_455  S
O480      Eu1464   2.342   1_455  S
O480      Eu2456   2.347   1_445  S
O480       Eu808   2.343   1_545  S
H489        O490   0.966       .  S
O490      Eu1465   2.355   1_455  S
O490      Eu1796   2.356   1_455  S
H491        O492   0.966       .  S
O492      Eu1794   2.355   1_455  S
O492      Eu2457   2.355   1_445  S
O492      Eu1138   2.351   1_545  S
C493       C1814   1.401   1_455  A
C493        C498   1.409       .  A
C493        H500   1.083       .  S
C494       C1813   1.401       .  A
C494        C495   1.413       .  A
C495        C496   1.402       .  A
C495        N502   1.444       .  S
C496        C497   1.402       .  A
C496        H501   1.084       .  S
C497       C1818   1.420       .  A
C498       C1817   1.420   1_455  A
C498        N499   1.449       .  S
N499        O503   1.263       .  A
N499        O504   1.262       .  A
N502        O505   1.263       .  A
N502        O506   1.263       .  A
C507       C1828   1.401   1_455  A
C507        C512   1.405       .  A
C507        H514   1.084       .  S
C508       C1827   1.401       .  A
C508        C509   1.413       .  A
C509        C510   1.402       .  A
C509        N516   1.443       .  S
C510        C511   1.402       .  A
C510        H515   1.084       .  S
C511       C1832   1.418       .  A
C512       C1831   1.418   1_455  A
C512        N513   1.448       .  S
N513        O517   1.263       .  A
N513        O518   1.262       .  A
N516        O519   1.262       .  A
N516        O520   1.263       .  A
C521       C1842   1.402   1_455  A
C521        C526   1.403       .  A
C521        H528   1.084       .  S
C522       C1841   1.402       .  A
C522        C523   1.418       .  A
C523        C524   1.405       .  A
C523        N530   1.446       .  S
C524        C525   1.401       .  A
C524        H529   1.084       .  S
C525       C1846   1.412       .  A
C526       C1845   1.412   1_455  A
C526        N527   1.443       .  S
N527        O531   1.263       .  A
N527        O532   1.263       .  A
N530        O533   1.262       .  A
N530        O534   1.263       .  A
C535       C1856   1.402   1_455  A
C535        C540   1.403       .  A
C535        H542   1.084       .  S
C536       C1855   1.402       .  A
C536        C537   1.415       .  A
C537        C538   1.404       .  A
C537        N544   1.441       .  S
C538        C539   1.401       .  A
C538        H543   1.084       .  S
C539       C1860   1.414       .  A
C540       C1859   1.414   1_455  A
C540        N541   1.443       .  S
N541        O545   1.263       .  A
N541        O546   1.263       .  A
N544        O547   1.262       .  A
N544        O548   1.263       .  A
C549        C550   1.403       .  A
C549        C554   1.402       .  A
C549        H556   1.084       .  S
C550       C1211   1.413       .  A
C551       C1210   1.413   1_545  A
C551        C552   1.405       .  A
C551        N558   1.441       .  S
C552       C1213   1.403   1_545  A
C552        H557   1.084       .  S
C553       C1212   1.403       .  A
C553        C554   1.411       .  A
C554        N555   1.439       .  S
N555        O559   1.262       .  A
N555        O560   1.262       .  A
N558        O561   1.263       .  A
N558        O562   1.263       .  A
C563        C564   1.405       .  A
C563        C568   1.408       .  A
C563        H570   1.084       .  S
C564        C565   1.415       .  A
C565        C566   1.402       .  A
C565        N572   1.440       .  S
C566        C567   1.407       .  A
C566        H571   1.083       .  S
C567        C568   1.418       .  A
C568        N569   1.431       .  S
N569        O573   1.262       .  A
N569        O574   1.262       .  A
N572        O575   1.263       .  A
N572       O1236   1.263       .  A
O576       N1232   1.263       .  A
C577        C578   1.417       .  A
C577        C582   1.419       .  A
C577        H584   1.079       .  S
C578        C579   1.425       .  A
C579        C580   1.387       .  A
C579        N586   1.437       .  S
C580        C581   1.403       .  A
C580        H585   1.082       .  S
C581        C582   1.421       .  A
C582        N583   1.436       .  S
N583       O1247   1.263       .  A
N583        O588   1.263       .  A
N586        O589   1.263       .  A
N586        O590   1.263       .  A
O587       N1243   1.263   1_545  A
C591       C1252   1.402       .  A
C591        C596   1.402   1_565  A
C591        H598   1.084   1_565  S
C592       C1251   1.402       .  A
C592        C593   1.412       .  A
C593        C594   1.408       .  A
C593        N600   1.439       .  S
C594        C595   1.404       .  A
C594        H599   1.083       .  S
C595       C1256   1.413       .  A
C596       C1255   1.413   1_545  A
C596        N597   1.442       .  S
N597        O601   1.263       .  A
N597        O602   1.262       .  A
N600        O603   1.263       .  A
N600        O604   1.262       .  A
C605        C610   1.408       .  A
C605        H612   1.084       .  S
C606        C607   1.415       .  A
C607        C608   1.400       .  A
C607        N614   1.441       .  S
C608        C609   1.404       .  A
C608        H613   1.084       .  S
C610        N611   1.434       .  S
N611        O616   1.262       .  A
N614        O617   1.263       .  A
C619        C620   1.402   1_556  A
C619        C624   1.404       .  A
C619        H626   1.084       .  S
C621        C622   1.404       .  A
C621        N628   1.442       .  S
C622        H627   1.084       .  S
C623        C624   1.413   1_554  A
C624        N625   1.436       .  S
N625        O629   1.261       .  A
N625        O630   1.263       .  A
N628        O631   1.263       .  A
N628        O632   1.263       .  A
C633        C638   1.408       .  A
C633        H640   1.084       .  S
C634        C635   1.409   1_554  A
C635        C636   1.398       .  A
C635        N642   1.437       .  S
C636        C637   1.400   1_556  A
C636        H641   1.083       .  S
C638        N639   1.445       .  S
N639        O643   1.263       .  A
N639        O644   1.262       .  A
N642        O645   1.262       .  A
N642        O646   1.262       .  A
C647        C652   1.402       .  A
C647        H654   1.084       .  S
C648        C649   1.415       .  A
C649        C650   1.406       .  A
C649        N656   1.444       .  S
C650        C651   1.404       .  A
C650        H655   1.084       .  S
C652        N653   1.435       .  S
N653        O657   1.262       .  A
N653        O658   1.262       .  A
N656        O659   1.263       .  A
N656        O660   1.263       .  A
C661        C662   1.412       .  A
C661        C996   1.409       .  A
C661        C780   1.483       .  S
C662        C663   1.403       .  A
C662        H667   1.083       .  S
C663        C994   1.398       .  A
C663        C981   1.478       .  S
C664        C993   1.398       .  A
C664        C665   1.396   1_556  A
C664        H668   1.085       .  S
C665        C666   1.399   1_554  A
C665       C1297   1.472       .  S
C666        C991   1.409       .  A
C666        H669   1.084   1_556  S
C670        C671   1.411       .  A
C670        C675   1.410       .  A
C670        C781   1.482       .  S
C671        C672   1.402       .  A
C671        H676   1.084       .  S
C672        C673   1.399       .  A
C672        C953   1.478       .  S
C673        C674   1.398       .  A
C673        H677   1.085       .  S
C674        C675   1.400       .  A
C674        C978   1.475       .  S
C675        H678   1.084       .  S
C679        C680   1.412       .  A
C679        C684   1.413       .  A
C679        C811   1.484       .  S
C680        C681   1.400       .  A
C680        H685   1.084       .  S
C681        C682   1.398       .  A
C681        C950   1.479       .  S
C682        C683   1.401       .  A
C682        H686   1.085       .  S
C683        C684   1.403       .  A
C683        C936   1.484       .  S
C684        H687   1.083       .  S
C688        C689   1.409       .  A
C688        C693   1.414       .  A
C688        C812   1.482       .  S
C689        C690   1.396       .  A
C689        H694   1.084       .  S
C690        C691   1.395       .  A
C690        C964   1.471       .  S
C691        C692   1.402       .  A
C691        H695   1.085       .  S
C692        C693   1.406       .  A
C692        C939   1.488       .  S
C693        H696   1.083       .  S
C697        C698   1.417       .  A
C697        C702   1.408       .  A
C697        C783   1.486       .  S
C698        C699   1.421       .  A
C698        H703   1.079       .  S
C699        C700   1.409       .  A
C699        C908   1.518       .  S
C700        C701   1.392       .  A
C700        H704   1.078       .  S
C701        C702   1.391       .  A
C701        C922   1.478       .  S
C702        H705   1.084       .  S
C706        C707   1.411       .  A
C706        C711   1.414       .  A
C706        C818   1.487       .  S
C707        C708   1.399       .  A
C707        H712   1.084       .  S
C708        C709   1.397       .  A
C708        C925   1.477       .  S
C709        C710   1.404       .  A
C709        H713   1.084       .  S
C710        C711   1.407       .  A
C710        C894   1.491       .  S
C711        H714   1.083       .  S
C715        C716   1.407       .  A
C715        C720   1.415       .  A
C715        C817   1.484       .  S
C716        C717   1.393       .  A
C716        H721   1.084       .  S
C717        C718   1.397       .  A
C717        C883   1.475       .  S
C718        C719   1.408       .  A
C718        H722   1.084       .  S
C719        C720   1.411       .  A
C719        C897   1.500   1_565  S
C720        H723   1.082       .  S
C724        C725   1.417       .  A
C724        C729   1.409       .  A
C724        C782   1.483       .  S
C725        C726   1.413       .  A
C725        H730   1.081       .  S
C726        C727   1.410       .  A
C726        C911   1.507       .  S
C727        C728   1.391       .  A
C727        H731   1.083   1_565  S
C728        C729   1.391       .  A
C728        C880   1.474       .  S
C729        H732   1.083       .  S
C733        C734   1.409       .  A
C733        C738   1.409       .  A
C733        C814   1.479       .  S
C734        C735   1.400       .  A
C734        H739   1.084       .  S
C735        C736   1.399       .  A
C735        C866   1.474       .  S
C736        C737   1.398       .  A
C736        H740   1.085       .  S
C737        C738   1.398       .  A
C737        C852   1.471       .  S
C738        H741   1.084       .  S
C742        C743   1.410       .  A
C742        C747   1.410       .  A
C742        C815   1.480       .  S
C743        C744   1.399       .  A
C743        H748   1.083       .  S
C744        C745   1.397       .  A
C744        C869   1.472       .  S
C745        C746   1.397       .  A
C745        H749   1.085       .  S
C746        C747   1.399       .  A
C746        C838   1.471       .  S
C747        H750   1.084       .  S
C751        C752   1.411       .  A
C751        C756   1.412       .  A
C751        C813   1.482       .  S
C752        C753   1.399       .  A
C752        H757   1.084       .  S
C753        C754   1.396       .  A
C753        C855   1.472       .  S
C754        C755   1.396       .  A
C754        H758   1.085       .  S
C755        C756   1.402       .  A
C755        C827   1.474       .  S
C756        H759   1.083       .  S
C760        C761   1.410       .  A
C760        C765   1.412       .  A
C760        C816   1.483       .  S
C761        C762   1.398       .  A
C761        H766   1.084       .  S
C762        C763   1.395       .  A
C762        C841   1.470       .  S
C763        C764   1.396       .  A
C763        H767   1.085       .  S
C764        C765   1.403       .  A
C764        C824   1.473       .  S
C765        H768   1.083       .  S
O769        C780   1.291       .  A
O769       Eu805   2.455       .  S
O770        C781   1.291       .  A
O770       Eu804   2.456       .  S
O771        C782   1.291       .  A
O771      Eu1107   2.448   1_554  S
O772        C783   1.291       .  A
O772       Eu777   2.447       .  S
O773        C783   1.293       .  A
O773       Eu807   2.471       .  S
O774        C782   1.291       .  A
O774       Eu806   2.463       .  S
O775        C781   1.291       .  A
O776        C780   1.292       .  A
O776       Eu777   2.458       .  S
Eu777      O1101   2.448       .  S
Eu777       O787   2.346       .  S
Eu777      O1109   2.348       .  S
O778       Eu804   2.352       .  S
O779      Eu1107   2.348   1_554  S
O779      Eu1135   2.350   1_554  S
O779       Eu806   2.350       .  S
H784        O785   0.966       .  S
O785      Eu1134   2.354   1_554  S
H786        O787   0.966       .  S
O787       Eu805   2.352       .  S
O787       Eu807   2.352       .  S
O788        C811   1.292       .  A
O788      Eu2124   2.462   1_455  S
O789        C812   1.290       .  A
O789      Eu2125   2.450   1_455  S
O790        C813   1.291       .  A
O791        C814   1.290       .  A
O792        C815   1.291       .  A
O792       Eu807   2.452       .  S
O793        C816   1.291       .  A
O793       Eu806   2.453       .  S
O794        C817   1.292       .  A
O794      Eu1138   2.455   1_554  S
O795        C818   1.293       .  A
O795       Eu808   2.462       .  S
O796        C817   1.290       .  A
O796      Eu2126   2.455   1_455  S
O797        C818   1.292       .  A
O797      Eu2127   2.462   1_455  S
O798        C813   1.291       .  A
O798      Eu1134   2.457   1_554  S
O799        C816   1.291       .  A
O799      Eu1135   2.458   1_554  S
O800        C815   1.291       .  A
O800       Eu805   2.451       .  S
O801        C814   1.291       .  A
O801       Eu804   2.452       .  S
O802        C811   1.291       .  A
O803        C812   1.292       .  A
O803       Eu808   2.457       .  S
Eu804      O2108   2.462       .  S
Eu804      O1128   2.457       .  S
Eu804      O1115   2.354       .  S
Eu804      O2142   2.355       .  S
Eu804      O2460   2.342       .  S
Eu805      O2109   2.450       .  S
Eu805      O1129   2.458       .  S
Eu805      O1109   2.350       .  S
Eu805      O2129   2.351       .  S
Eu805      O2470   2.355       .  S
Eu806      O2116   2.455       .  S
Eu806      O2140   2.355       .  S
Eu806      O1470   2.348   1_565  S
Eu807      O2117   2.462       .  S
Eu807      O2129   2.354       .  S
Eu807      O1482   2.355   1_565  S
Eu808      O1124   2.455       .  S
Eu808       O809   2.345       .  S
Eu808      O1150   2.352       .  S
O809      Eu2125   2.351   1_455  S
O809      Eu2127   2.354   1_455  S
O810      Eu2454   2.342   1_454  S
O810      Eu1466   2.347   1_455  S
H819        O820   0.966       .  S
O820      Eu2455   2.355   1_454  S
O820      Eu2126   2.356   1_455  S
O820      Eu1138   2.352   1_554  S
H821        O822   0.966       .  S
O822      Eu2124   2.355   1_455  S
O822      Eu1467   2.355   1_455  S
C823       C2144   1.401   1_455  A
C823        C828   1.409       .  A
C823        H830   1.083       .  S
C824       C2143   1.401       .  A
C824        C825   1.413       .  A
C825        C826   1.402       .  A
C825        N832   1.444       .  S
C826        C827   1.402       .  A
C826        H831   1.084       .  S
C827       C2148   1.420       .  A
C828       C2147   1.420   1_455  A
C828        N829   1.449       .  S
N829        O833   1.263       .  A
N829        O834   1.262       .  A
N832        O835   1.263       .  A
N832        O836   1.263       .  A
C837       C2158   1.401   1_455  A
C837        C842   1.405       .  A
C837        H844   1.084       .  S
C838       C2157   1.401       .  A
C838        C839   1.413       .  A
C839        C840   1.402       .  A
C839        N846   1.443       .  S
C840        C841   1.402       .  A
C840        H845   1.084       .  S
C841       C2162   1.418       .  A
C842       C2161   1.418   1_455  A
C842        N843   1.448       .  S
N843        O847   1.263       .  A
N843        O848   1.262       .  A
N846        O849   1.262       .  A
N846        O850   1.263       .  A
C851       C2172   1.402   1_455  A
C851        C856   1.403       .  A
C851        H858   1.084       .  S
C852       C2171   1.402       .  A
C852        C853   1.418       .  A
C853        C854   1.405       .  A
C853        N860   1.446       .  S
C854        C855   1.401       .  A
C854        H859   1.084       .  S
C855       C2176   1.412       .  A
C856       C2175   1.412   1_455  A
C856        N857   1.443       .  S
N857        O861   1.263       .  A
N857        O862   1.263       .  A
N860        O863   1.262       .  A
N860        O864   1.263       .  A
C865       C2186   1.402   1_455  A
C865        C870   1.403       .  A
C865        H872   1.084       .  S
C866       C2185   1.402       .  A
C866        C867   1.415       .  A
C867        C868   1.404       .  A
C867        N874   1.441       .  S
C868        C869   1.401       .  A
C868        H873   1.084       .  S
C869       C2190   1.414       .  A
C870       C2189   1.414   1_455  A
C870        N871   1.443       .  S
N871        O875   1.263       .  A
N871        O876   1.263       .  A
N874        O877   1.262       .  A
N874        O878   1.263       .  A
C879        C880   1.403       .  A
C879        C884   1.402       .  A
C879        H886   1.084       .  S
C881        C882   1.405       .  A
C881        N888   1.441       .  S
C882        H887   1.084       .  S
C883        C884   1.411       .  A
C884        N885   1.439       .  S
N885        O889   1.262       .  A
N885        O890   1.262       .  A
N888        O891   1.263       .  A
N888        O892   1.263       .  A
C893        C894   1.405       .  A
C893        C898   1.408       .  A
C893        H900   1.084       .  S
C894        C895   1.415   1_565  A
C895        C896   1.402       .  A
C895        N902   1.440       .  S
C896        C897   1.407       .  A
C896        H901   1.083       .  S
C897        C898   1.418   1_545  A
C898        N899   1.431       .  S
N899        O903   1.262       .  A
N899        O904   1.262       .  A
N902        O905   1.263       .  A
C907        C908   1.417       .  A
C907        C912   1.419       .  A
C907        H914   1.079       .  S
C908        C909   1.425       .  A
C909        C910   1.387       .  A
C909        N916   1.437       .  S
C910        C911   1.403       .  A
C910        H915   1.082       .  S
C911        C912   1.421       .  A
C912        N913   1.436       .  S
N913        O918   1.263       .  A
N916        O919   1.263   1_565  A
N916        O920   1.263       .  A
C921        C926   1.402       .  A
C921        H928   1.084       .  S
C922        C923   1.412       .  A
C923        C924   1.408       .  A
C923        N930   1.439       .  S
C924        C925   1.404       .  A
C924        H929   1.083       .  S
C926        N927   1.442       .  S
N927        O931   1.263       .  A
N927        O932   1.262       .  A
N930        O933   1.263       .  A
N930        O934   1.262       .  A
C935       C1266   1.404   1_554  A
C935        C940   1.408       .  A
C935        H942   1.084       .  S
C936       C1265   1.404       .  A
C936        C937   1.415       .  A
C937        C938   1.400       .  A
C937        N944   1.441       .  S
C938        C939   1.404       .  A
C938        H943   1.084       .  S
C939       C1270   1.416       .  A
C940       C1269   1.416   1_554  A
C940        N941   1.434       .  S
N941       O1275   1.262       .  A
N941        O946   1.262       .  A
N944        O947   1.263       .  A
N944       O1278   1.263       .  A
O945       N1271   1.262       .  A
O948       N1274   1.263       .  A
C949        C950   1.402       .  A
C949        C954   1.404       .  A
C949        H956   1.084       .  S
C950       C1281   1.414       .  A
C951       C1280   1.414       .  A
C951        C952   1.404       .  A
C951        N958   1.442       .  S
C952       C1283   1.403       .  A
C952        H957   1.084       .  S
C953       C1282   1.403       .  A
C953        C954   1.413       .  A
C954        N955   1.436       .  S
N955        O959   1.261       .  A
N955        O960   1.263       .  A
N958        O961   1.263       .  A
N958        O962   1.263       .  A
C963       C1294   1.401       .  A
C963        C968   1.408       .  A
C963        H970   1.084       .  S
C964       C1293   1.401       .  A
C964        C965   1.409       .  A
C965        C966   1.398       .  A
C965        N972   1.437       .  S
C966        C967   1.400       .  A
C966        H971   1.083       .  S
C967       C1298   1.418       .  A
C967        C995   1.472       .  S
C968       C1297   1.418       .  A
C968        N969   1.445       .  S
N969        O973   1.263       .  A
N969        O974   1.262       .  A
N972        O975   1.262       .  A
N972        O976   1.262       .  A
C977       C1308   1.400   1_554  A
C977        C982   1.402       .  A
C977        H984   1.084       .  S
C978       C1307   1.400       .  A
C978        C979   1.415       .  A
C979        C980   1.406       .  A
C979        N986   1.444       .  S
C980        C981   1.404       .  A
C980        H985   1.084       .  S
C981       C1312   1.412       .  A
C982       C1311   1.412   1_554  A
C982        N983   1.435       .  S
N983        O987   1.262       .  A
N983        O988   1.262       .  A
N986        O989   1.263       .  A
N986        O990   1.263       .  A
C991        C992   1.412       .  A
C991       C1110   1.483       .  S
C992        C993   1.403       .  A
C992        H997   1.083       .  S
C993       C1311   1.478       .  S
C994        C995   1.396       .  A
C994        H998   1.085       .  S
C995        C996   1.399       .  A
C996        H999   1.084       .  S
C1000      C1001   1.411       .  A
C1000      C1005   1.410   1_554  A
C1000      C1111   1.482   1_554  S
C1001      C1002   1.402       .  A
C1001      H1006   1.084       .  S
C1002      C1003   1.399       .  A
C1002      C1283   1.478       .  S
C1003      C1004   1.398   1_554  A
C1003      H1007   1.085       .  S
C1004      C1005   1.400       .  A
C1004      C1308   1.475       .  S
C1005      H1008   1.084       .  S
C1009      C1010   1.412       .  A
C1009      C1014   1.413   1_554  A
C1009      C1141   1.483       .  S
C1010      C1011   1.400       .  A
C1010      H1015   1.084       .  S
C1011      C1012   1.398       .  A
C1011      C1280   1.479       .  S
C1012      C1013   1.401       .  A
C1012      H1016   1.085       .  S
C1013      C1014   1.403   1_554  A
C1013      C1266   1.484   1_554  S
C1014      H1017   1.083       .  S
C1018      C1019   1.409       .  A
C1018      C1023   1.414   1_554  A
C1018      C1142   1.482       .  S
C1019      C1020   1.396       .  A
C1019      H1024   1.084       .  S
C1020      C1021   1.395       .  A
C1020      C1294   1.471       .  S
C1021      C1022   1.402   1_554  A
C1021      H1025   1.085       .  S
C1022      C1023   1.406       .  A
C1022      C1269   1.488       .  S
C1023      H1026   1.083       .  S
C1027      C1028   1.417       .  A
C1027      C1032   1.408       .  A
C1027      C1113   1.486       .  S
C1028      C1029   1.421       .  A
C1028      H1033   1.079       .  S
C1029      C1030   1.409       .  A
C1029      C1238   1.518       .  S
C1030      C1031   1.392       .  A
C1030      H1034   1.078       .  S
C1031      C1032   1.391       .  A
C1031      C1252   1.478       .  S
C1032      H1035   1.084       .  S
C1036      C1037   1.411       .  A
C1036      C1041   1.414       .  A
C1036      C1148   1.487       .  S
C1037      C1038   1.399       .  A
C1037      H1042   1.084       .  S
C1038      C1039   1.397       .  A
C1038      C1255   1.477       .  S
C1039      C1040   1.404       .  A
C1039      H1043   1.084       .  S
C1040      C1041   1.407       .  A
C1040      C1224   1.491       .  S
C1041      H1044   1.083       .  S
C1045      C1046   1.407       .  A
C1045      C1050   1.415       .  A
C1045      C1147   1.484       .  S
C1046      C1047   1.393       .  A
C1046      H1051   1.084       .  S
C1047      C1048   1.397       .  A
C1047      C1213   1.475       .  S
C1048      C1049   1.408       .  A
C1048      H1052   1.084       .  S
C1049      C1050   1.411       .  A
C1049      C1227   1.500   1_565  S
C1050      H1053   1.082       .  S
C1054      C1055   1.417       .  A
C1054      C1059   1.409       .  A
C1054      C1112   1.483       .  S
C1055      C1056   1.413       .  A
C1055      H1060   1.081       .  S
C1056      C1057   1.410       .  A
C1056      C1241   1.507       .  S
C1057      C1058   1.391       .  A
C1057      H1061   1.083   1_565  S
C1058      C1059   1.391       .  A
C1058      C1210   1.474       .  S
C1059      H1062   1.083       .  S
C1063      C1064   1.409       .  A
C1063      C1068   1.409       .  A
C1063      C1144   1.479       .  S
C1064      C1065   1.400       .  A
C1064      H1069   1.084       .  S
C1065      C1066   1.399       .  A
C1065      C1196   1.474       .  S
C1066      C1067   1.398       .  A
C1066      H1070   1.085       .  S
C1067      C1068   1.398       .  A
C1067      C1182   1.471       .  S
C1068      H1071   1.084       .  S
C1072      C1073   1.410       .  A
C1072      C1077   1.410       .  A
C1072      C1145   1.480       .  S
C1073      C1074   1.399       .  A
C1073      H1078   1.083       .  S
C1074      C1075   1.397       .  A
C1074      C1199   1.472       .  S
C1075      C1076   1.397       .  A
C1075      H1079   1.085       .  S
C1076      C1077   1.399       .  A
C1076      C1168   1.471       .  S
C1077      H1080   1.084       .  S
C1081      C1082   1.411       .  A
C1081      C1086   1.412       .  A
C1081      C1143   1.482       .  S
C1082      C1083   1.399       .  A
C1082      H1087   1.084       .  S
C1083      C1084   1.396       .  A
C1083      C1185   1.472       .  S
C1084      C1085   1.396       .  A
C1084      H1088   1.085       .  S
C1085      C1086   1.402       .  A
C1085      C1157   1.474       .  S
C1086      H1089   1.083       .  S
C1090      C1091   1.410       .  A
C1090      C1095   1.412       .  A
C1090      C1146   1.483       .  S
C1091      C1092   1.398       .  A
C1091      H1096   1.084       .  S
C1092      C1093   1.395       .  A
C1092      C1171   1.470       .  S
C1093      C1094   1.396       .  A
C1093      H1097   1.085       .  S
C1094      C1095   1.403       .  A
C1094      C1154   1.473       .  S
C1095      H1098   1.083       .  S
O1099      C1110   1.291       .  A
O1099     Eu1135   2.455       .  S
O1100      C1111   1.291       .  A
O1100     Eu1134   2.456       .  S
O1101      C1112   1.291       .  A
O1102      C1113   1.291       .  A
O1102     Eu1107   2.447       .  S
O1103      C1113   1.293       .  A
O1103     Eu1137   2.471       .  S
O1104      C1112   1.291       .  A
O1104     Eu1136   2.463       .  S
O1105      C1111   1.292       .  A
O1106      C1110   1.292       .  A
O1106     Eu1107   2.458       .  S
Eu1107     O1117   2.346       .  S
O1108     Eu1134   2.352       .  S
O1109     Eu1136   2.350       .  S
H1114      O1115   0.966       .  S
H1116      O1117   0.966       .  S
O1117     Eu1135   2.352       .  S
O1117     Eu1137   2.352       .  S
O1118      C1141   1.292       .  A
O1118     Eu2454   2.462   1_454  S
O1119      C1142   1.290   1_556  A
O1119     Eu2455   2.450   1_455  S
O1120      C1143   1.291       .  A
O1121      C1144   1.290       .  A
O1122      C1145   1.291       .  A
O1122     Eu1137   2.452       .  S
O1123      C1146   1.291       .  A
O1123     Eu1136   2.453       .  S
O1124      C1147   1.292       .  A
O1125      C1148   1.293       .  A
O1125     Eu1138   2.462       .  S
O1126      C1147   1.290       .  A
O1126     Eu2456   2.455   1_455  S
O1127      C1148   1.292       .  A
O1127     Eu2457   2.462   1_455  S
O1128      C1143   1.291       .  A
O1129      C1146   1.291       .  A
O1130      C1145   1.291       .  A
O1130     Eu1135   2.451       .  S
O1131      C1144   1.291       .  A
O1131     Eu1134   2.452       .  S
O1132      C1141   1.291       .  A
O1133      C1142   1.292       .  A
O1133     Eu1138   2.457   1_554  S
Eu1134     O2438   2.462   1_556  S
Eu1134     O2472   2.355       .  S
Eu1134     O2130   2.342   1_556  S
Eu1135     O2439   2.450       .  S
Eu1135     O2459   2.351       .  S
Eu1135     O2140   2.356   1_556  S
Eu1136     O2446   2.455       .  S
Eu1136     O2470   2.356       .  S
Eu1136     O1800   2.347   1_565  S
Eu1137     O2447   2.462       .  S
Eu1137     O2459   2.354       .  S
Eu1137     O1812   2.355   1_565  S
Eu1138     O1139   2.345       .  S
O1139     Eu2455   2.351   1_455  S
O1139     Eu2457   2.354   1_455  S
O1140     Eu2124   2.342   1_455  S
O1140     Eu1796   2.347   1_455  S
H1149      O1150   0.966       .  S
O1150     Eu2125   2.355   1_455  S
O1150     Eu2456   2.356   1_455  S
H1151      O1152   0.966       .  S
O1152     Eu2454   2.355   1_455  S
O1152     Eu1797   2.355   1_455  S
C1153      C2474   1.401   1_455  A
C1153      C1158   1.409       .  A
C1153      H1160   1.083       .  S
C1154      C2473   1.401       .  A
C1154      C1155   1.413       .  A
C1155      C1156   1.402       .  A
C1155      N1162   1.444       .  S
C1156      C1157   1.402       .  A
C1156      H1161   1.084       .  S
C1157      C2478   1.420       .  A
C1158      C2477   1.420   1_455  A
C1158      N1159   1.449       .  S
N1159      O1163   1.263       .  A
N1159      O1164   1.262       .  A
N1162      O1165   1.263       .  A
N1162      O1166   1.263       .  A
C1167      C2488   1.401   1_455  A
C1167      C1172   1.405       .  A
C1167      H1174   1.084       .  S
C1168      C2487   1.401       .  A
C1168      C1169   1.413       .  A
C1169      C1170   1.402       .  A
C1169      N1176   1.443       .  S
C1170      C1171   1.402       .  A
C1170      H1175   1.084       .  S
C1171      C2492   1.418       .  A
C1172      C2491   1.418   1_455  A
C1172      N1173   1.448       .  S
N1173      O1177   1.263       .  A
N1173      O1178   1.262       .  A
N1176      O1179   1.262       .  A
N1176      O1180   1.263       .  A
C1181      C2502   1.402   1_455  A
C1181      C1186   1.403       .  A
C1181      H1188   1.084       .  S
C1182      C2501   1.402       .  A
C1182      C1183   1.418       .  A
C1183      C1184   1.405       .  A
C1183      N1190   1.446       .  S
C1184      C1185   1.401       .  A
C1184      H1189   1.084       .  S
C1185      C2506   1.412       .  A
C1186      C2505   1.412   1_455  A
C1186      N1187   1.443       .  S
N1187      O1191   1.263       .  A
N1187      O1192   1.263       .  A
N1190      O1193   1.262       .  A
N1190      O1194   1.263       .  A
C1195      C2516   1.402   1_455  A
C1195      C1200   1.403       .  A
C1195      H1202   1.084       .  S
C1196      C2515   1.402       .  A
C1196      C1197   1.415       .  A
C1197      C1198   1.404       .  A
C1197      N1204   1.441       .  S
C1198      C1199   1.401       .  A
C1198      H1203   1.084       .  S
C1199      C2520   1.414       .  A
C1200      C2519   1.414   1_455  A
C1200      N1201   1.443       .  S
N1201      O1205   1.263       .  A
N1201      O1206   1.263       .  A
N1204      O1207   1.262       .  A
N1204      O1208   1.263       .  A
C1209      C1210   1.403       .  A
C1209      C1214   1.402       .  A
C1209      H1216   1.084       .  S
C1211      C1212   1.405       .  A
C1211      N1218   1.441       .  S
C1212      H1217   1.084       .  S
C1213      C1214   1.411       .  A
C1214      N1215   1.439       .  S
N1215      O1219   1.262       .  A
N1215      O1220   1.262       .  A
N1218      O1221   1.263       .  A
N1218      O1222   1.263       .  A
C1223      C1224   1.405       .  A
C1223      C1228   1.408       .  A
C1223      H1230   1.084       .  S
C1224      C1225   1.415   1_565  A
C1225      C1226   1.402       .  A
C1225      N1232   1.440       .  S
C1226      C1227   1.407       .  A
C1226      H1231   1.083       .  S
C1227      C1228   1.418   1_545  A
C1228      N1229   1.431       .  S
N1229      O1233   1.262       .  A
N1229      O1234   1.262       .  A
N1232      O1235   1.263       .  A
C1237      C1238   1.417       .  A
C1237      C1242   1.419       .  A
C1237      H1244   1.079       .  S
C1238      C1239   1.425       .  A
C1239      C1240   1.387       .  A
C1239      N1246   1.437       .  S
C1240      C1241   1.403       .  A
C1240      H1245   1.082       .  S
C1241      C1242   1.421       .  A
C1242      N1243   1.436       .  S
N1243      O1248   1.263       .  A
N1246      O1249   1.263   1_565  A
N1246      O1250   1.263       .  A
C1251      C1256   1.402       .  A
C1251      H1258   1.084       .  S
C1252      C1253   1.412       .  A
C1253      C1254   1.408       .  A
C1253      N1260   1.439       .  S
C1254      C1255   1.404       .  A
C1254      H1259   1.083       .  S
C1256      N1257   1.442       .  S
N1257      O1261   1.263       .  A
N1257      O1262   1.262       .  A
N1260      O1263   1.263       .  A
N1260      O1264   1.262       .  A
C1265      C1270   1.408       .  A
C1265      H1272   1.084       .  S
C1266      C1267   1.415       .  A
C1267      C1268   1.400       .  A
C1267      N1274   1.441       .  S
C1268      C1269   1.404       .  A
C1268      H1273   1.084       .  S
C1270      N1271   1.434       .  S
N1271      O1276   1.262       .  A
N1274      O1277   1.263       .  A
C1279      C1280   1.402   1_556  A
C1279      C1284   1.404       .  A
C1279      H1286   1.084       .  S
C1281      C1282   1.404       .  A
C1281      N1288   1.442       .  S
C1282      H1287   1.084       .  S
C1283      C1284   1.413   1_554  A
C1284      N1285   1.436       .  S
N1285      O1289   1.261       .  A
N1285      O1290   1.263       .  A
N1288      O1291   1.263       .  A
N1288      O1292   1.263       .  A
C1293      C1298   1.408       .  A
C1293      H1300   1.084       .  S
C1294      C1295   1.409   1_554  A
C1295      C1296   1.398       .  A
C1295      N1302   1.437       .  S
C1296      C1297   1.400   1_556  A
C1296      H1301   1.083       .  S
C1298      N1299   1.445       .  S
N1299      O1303   1.263       .  A
N1299      O1304   1.262       .  A
N1302      O1305   1.262       .  A
N1302      O1306   1.262       .  A
C1307      C1312   1.402       .  A
C1307      H1314   1.084       .  S
C1308      C1309   1.415       .  A
C1309      C1310   1.406       .  A
C1309      N1316   1.444       .  S
C1310      C1311   1.404       .  A
C1310      H1315   1.084       .  S
C1312      N1313   1.435       .  S
N1313      O1317   1.262       .  A
N1313      O1318   1.262       .  A
N1316      O1319   1.263       .  A
N1316      O1320   1.263       .  A
C1321      C1322   1.412       .  A
C1321      C1656   1.409       .  A
C1321      C1440   1.483       .  S
C1322      C1323   1.403       .  A
C1322      H1327   1.083       .  S
C1323      C1654   1.398       .  A
C1323      C1641   1.478       .  S
C1324      C1653   1.398       .  A
C1324      C1325   1.396   1_556  A
C1324      H1328   1.085       .  S
C1325      C1326   1.399   1_554  A
C1325      C1957   1.472       .  S
C1326      C1651   1.409       .  A
C1326      H1329   1.084   1_556  S
C1330      C1331   1.411       .  A
C1330      C1335   1.410       .  A
C1330      C1441   1.482       .  S
C1331      C1332   1.402       .  A
C1331      H1336   1.084       .  S
C1332      C1333   1.399       .  A
C1332      C1613   1.478       .  S
C1333      C1334   1.398       .  A
C1333      H1337   1.085       .  S
C1334      C1335   1.400       .  A
C1334      C1638   1.475       .  S
C1335      H1338   1.084       .  S
C1339      C1340   1.412       .  A
C1339      C1344   1.413       .  A
C1339      C1471   1.484       .  S
C1340      C1341   1.400       .  A
C1340      H1345   1.084       .  S
C1341      C1342   1.398       .  A
C1341      C1610   1.479       .  S
C1342      C1343   1.401       .  A
C1342      H1346   1.085       .  S
C1343      C1344   1.403       .  A
C1343      C1596   1.484       .  S
C1344      H1347   1.083       .  S
C1348      C1349   1.409       .  A
C1348      C1353   1.414       .  A
C1348      C1472   1.482       .  S
C1349      C1350   1.396       .  A
C1349      H1354   1.084       .  S
C1350      C1351   1.395       .  A
C1350      C1624   1.471       .  S
C1351      C1352   1.402       .  A
C1351      H1355   1.085       .  S
C1352      C1353   1.406       .  A
C1352      C1599   1.488       .  S
C1353      H1356   1.083       .  S
C1357      C1358   1.417       .  A
C1357      C1362   1.408       .  A
C1357      C1443   1.486       .  S
C1358      C1359   1.421       .  A
C1358      H1363   1.079       .  S
C1359      C1360   1.409       .  A
C1359      C1568   1.518       .  S
C1360      C1361   1.392       .  A
C1360      H1364   1.078       .  S
C1361      C1362   1.391       .  A
C1361      C1582   1.478       .  S
C1362      H1365   1.084       .  S
C1366      C1367   1.411       .  A
C1366      C1371   1.414       .  A
C1366      C1478   1.487       .  S
C1367      C1368   1.399       .  A
C1367      H1372   1.084       .  S
C1368      C1369   1.397       .  A
C1368      C1585   1.477       .  S
C1369      C1370   1.404       .  A
C1369      H1373   1.084       .  S
C1370      C1371   1.407       .  A
C1370      C1554   1.491       .  S
C1371      H1374   1.083       .  S
C1375      C1376   1.407       .  A
C1375      C1380   1.414       .  A
C1375      C1477   1.484       .  S
C1376      C1377   1.393       .  A
C1376      H1381   1.084       .  S
C1377      C1378   1.397       .  A
C1377      C1543   1.475       .  S
C1378      C1379   1.408       .  A
C1378      H1382   1.084       .  S
C1379      C1380   1.411       .  A
C1379      C1557   1.499       .  S
C1380      H1383   1.082       .  S
C1384      C1385   1.417       .  A
C1384      C1389   1.409       .  A
C1384      C1442   1.483       .  S
C1385      C1386   1.413       .  A
C1385      H1390   1.081       .  S
C1386      C1387   1.410       .  A
C1386      C1571   1.507       .  S
C1387      C1388   1.391       .  A
C1387      H1391   1.083       .  S
C1388      C1389   1.391       .  A
C1388      C1540   1.474       .  S
C1389      H1392   1.083       .  S
C1393      C1394   1.409       .  A
C1393      C1398   1.409       .  A
C1393      C1474   1.479       .  S
C1394      C1395   1.400       .  A
C1394      H1399   1.084       .  S
C1395      C1396   1.399       .  A
C1395      C1526   1.474       .  S
C1396      C1397   1.398       .  A
C1396      H1400   1.085       .  S
C1397      C1398   1.398       .  A
C1397      C1512   1.471       .  S
C1398      H1401   1.084       .  S
C1402      C1403   1.410       .  A
C1402      C1407   1.410       .  A
C1402      C1475   1.480       .  S
C1403      C1404   1.399       .  A
C1403      H1408   1.083       .  S
C1404      C1405   1.397       .  A
C1404      C1529   1.472       .  S
C1405      C1406   1.397       .  A
C1405      H1409   1.085       .  S
C1406      C1407   1.399       .  A
C1406      C1498   1.471       .  S
C1407      H1410   1.084       .  S
C1411      C1412   1.411       .  A
C1411      C1416   1.412       .  A
C1411      C1473   1.482       .  S
C1412      C1413   1.399       .  A
C1412      H1417   1.084       .  S
C1413      C1414   1.396       .  A
C1413      C1515   1.472       .  S
C1414      C1415   1.396       .  A
C1414      H1418   1.085       .  S
C1415      C1416   1.402       .  A
C1415      C1487   1.474       .  S
C1416      H1419   1.083       .  S
C1420      C1421   1.410       .  A
C1420      C1425   1.412       .  A
C1420      C1476   1.483       .  S
C1421      C1422   1.398       .  A
C1421      H1426   1.084       .  S
C1422      C1423   1.395       .  A
C1422      C1501   1.470       .  S
C1423      C1424   1.396       .  A
C1423      H1427   1.085       .  S
C1424      C1425   1.403       .  A
C1424      C1484   1.473       .  S
C1425      H1428   1.083       .  S
O1429      C1440   1.291       .  A
O1429     Eu1465   2.455       .  S
O1430      C1441   1.292       .  A
O1430     Eu1464   2.456       .  S
O1431      C1442   1.291       .  A
O1431     Eu1767   2.448   1_554  S
O1432      C1443   1.291       .  A
O1432     Eu1437   2.447       .  S
O1433      C1443   1.293       .  A
O1433     Eu1467   2.471       .  S
O1434      C1442   1.291       .  A
O1434     Eu1466   2.463       .  S
O1435      C1441   1.291       .  A
O1435     Eu2097   2.456   1_545  S
O1436      C1440   1.292       .  A
O1436     Eu1437   2.458       .  S
Eu1437     O1761   2.448       .  S
Eu1437     O2095   2.456       .  S
Eu1437     O1447   2.346       .  S
Eu1437     O1769   2.348       .  S
Eu1437     O2098   2.350       .  S
Eu1437     O2435   2.348       .  S
O1438     Eu2097   2.350   1_545  S
O1438     Eu2127   2.353   1_545  S
O1438     Eu1464   2.352       .  S
O1439     Eu1767   2.348   1_554  S
O1439     Eu1795   2.350   1_554  S
O1439     Eu1466   2.350       .  S
H1444      O1445   0.966       .  S
O1445     Eu2427   2.348   1_544  S
O1445     Eu2126   2.351   1_545  S
O1445     Eu1794   2.354   1_554  S
H1446      O1447   0.966       .  S
O1447     Eu1465   2.352       .  S
O1447     Eu1467   2.352       .  S
O1448      C1471   1.292       .  A
O1449      C1472   1.290       .  A
O1450      C1473   1.291       .  A
O1450     Eu2126   2.452   1_545  S
O1451      C1474   1.290       .  A
O1451     Eu2127   2.449   1_545  S
O1452      C1475   1.291       .  A
O1452     Eu1467   2.452       .  S
O1453      C1476   1.291       .  A
O1453     Eu1466   2.453       .  S
O1454      C1477   1.292       .  A
O1454     Eu1798   2.455   1_554  S
O1455      C1478   1.293       .  A
O1455     Eu1468   2.462       .  S
O1456      C1477   1.290       .  A
O1457      C1478   1.292       .  A
O1458      C1473   1.291       .  A
O1458     Eu1794   2.457   1_554  S
O1459      C1476   1.291       .  A
O1459     Eu1795   2.458   1_554  S
O1460      C1475   1.291       .  A
O1460     Eu1465   2.451       .  S
O1461      C1474   1.291       .  A
O1461     Eu1464   2.452       .  S
O1462      C1471   1.291       .  A
O1462     Eu2128   2.453   1_545  S
O1463      C1472   1.292       .  A
O1463     Eu1468   2.457       .  S
Eu1464     O1788   2.457       .  S
Eu1464     O1775   2.354       .  S
Eu1465     O1789   2.458       .  S
Eu1465     O1769   2.350       .  S
Eu1466     O2110   2.452       .  S
Eu1466     O2105   2.351       .  S
Eu1467     O2111   2.449       .  S
Eu1467     O2098   2.353       .  S
Eu1468     O1784   2.455       .  S
Eu1468     O2122   2.453       .  S
Eu1468     O1469   2.345       .  S
Eu1468     O1810   2.352       .  S
Eu1468     O2142   2.351       .  S
Eu1468     O2460   2.343       .  S
O1470     Eu2458   2.343   1_544  S
H1479      O1480   0.966       .  S
O1480     Eu1798   2.353   1_554  S
H1481      O1482   0.966       .  S
O1482     Eu2128   2.351   1_545  S
C1483      C1488   1.409       .  A
C1483      H1490   1.083       .  S
C1484      C1485   1.413       .  A
C1485      C1486   1.402       .  A
C1485      N1492   1.444       .  S
C1486      C1487   1.402       .  A
C1486      H1491   1.084       .  S
C1488      N1489   1.449       .  S
N1489      O1493   1.263       .  A
N1489      O1494   1.262       .  A
N1492      O1495   1.263       .  A
N1492      O1496   1.263       .  A
C1497      C1502   1.405       .  A
C1497      H1504   1.084       .  S
C1498      C1499   1.413       .  A
C1499      C1500   1.402       .  A
C1499      N1506   1.443       .  S
C1500      C1501   1.402       .  A
C1500      H1505   1.084       .  S
C1502      N1503   1.448       .  S
N1503      O1507   1.263       .  A
N1503      O1508   1.262       .  A
N1506      O1509   1.262       .  A
N1506      O1510   1.263       .  A
C1511      C1516   1.403       .  A
C1511      H1518   1.084       .  S
C1512      C1513   1.418       .  A
C1513      C1514   1.405       .  A
C1513      N1520   1.446       .  S
C1514      C1515   1.401       .  A
C1514      H1519   1.084       .  S
C1516      N1517   1.443       .  S
N1517      O1521   1.263       .  A
N1517      O1522   1.263       .  A
N1520      O1523   1.262       .  A
N1520      O1524   1.263       .  A
C1525      C1530   1.403       .  A
C1525      H1532   1.084       .  S
C1526      C1527   1.415       .  A
C1527      C1528   1.404       .  A
C1527      N1534   1.441       .  S
C1528      C1529   1.401       .  A
C1528      H1533   1.084       .  S
C1530      N1531   1.443       .  S
N1531      O1535   1.263       .  A
N1531      O1536   1.263       .  A
N1534      O1537   1.262       .  A
N1534      O1538   1.263       .  A
C1539      C1540   1.403       .  A
C1539      C1544   1.402       .  A
C1539      H1546   1.084       .  S
C1540      C2201   1.413       .  A
C1541      C2200   1.413   1_545  A
C1541      C1542   1.405       .  A
C1541      N1548   1.441       .  S
C1542      C2203   1.403   1_545  A
C1542      H1547   1.084       .  S
C1543      C2202   1.403       .  A
C1543      C1544   1.411       .  A
C1544      N1545   1.439       .  S
N1545      O1549   1.262       .  A
N1545      O1550   1.262       .  A
N1548      O1551   1.263       .  A
N1548      O1552   1.263       .  A
C1553      C1554   1.405       .  A
C1553      C1558   1.408       .  A
C1553      H1560   1.084       .  S
C1554      C1555   1.415       .  A
C1555      C1556   1.402       .  A
C1555      N1562   1.440       .  S
C1556      C1557   1.407       .  A
C1556      H1561   1.083       .  S
C1557      C1558   1.418       .  A
C1558      N1559   1.431       .  S
N1559      O1563   1.262       .  A
N1559      O1564   1.262       .  A
N1562      O1565   1.263       .  A
N1562      O2226   1.263       .  A
O1566      N2222   1.263       .  A
C1567      C1568   1.417       .  A
C1567      C1572   1.419       .  A
C1567      H1574   1.079       .  S
C1568      C1569   1.425       .  A
C1569      C1570   1.387       .  A
C1569      N1576   1.437       .  S
C1570      C1571   1.403       .  A
C1570      H1575   1.082       .  S
C1571      C1572   1.421       .  A
C1572      N1573   1.436       .  S
N1573      O2237   1.263       .  A
N1573      O1578   1.263       .  A
N1576      O1579   1.263       .  A
N1576      O1580   1.263       .  A
O1577      N2233   1.263   1_545  A
C1581      C2242   1.402       .  A
C1581      C1586   1.402   1_565  A
C1581      H1588   1.084   1_565  S
C1582      C2241   1.402       .  A
C1582      C1583   1.412       .  A
C1583      C1584   1.408       .  A
C1583      N1590   1.439       .  S
C1584      C1585   1.404       .  A
C1584      H1589   1.083       .  S
C1585      C2246   1.413       .  A
C1586      C2245   1.413   1_545  A
C1586      N1587   1.442       .  S
N1587      O1591   1.263       .  A
N1587      O1592   1.262       .  A
N1590      O1593   1.263       .  A
N1590      O1594   1.262       .  A
C1595      C1926   1.404   1_554  A
C1595      C1600   1.408       .  A
C1595      H1602   1.084       .  S
C1596      C1925   1.404       .  A
C1596      C1597   1.415       .  A
C1597      C1598   1.400       .  A
C1597      N1604   1.441       .  S
C1598      C1599   1.404       .  A
C1598      H1603   1.084       .  S
C1599      C1930   1.416       .  A
C1600      C1929   1.416   1_554  A
C1600      N1601   1.434       .  S
N1601      O1935   1.262       .  A
N1601      O1606   1.262       .  A
N1604      O1607   1.263       .  A
N1604      O1938   1.263       .  A
O1605      N1931   1.262       .  A
O1608      N1934   1.263       .  A
C1609      C1610   1.402       .  A
C1609      C1614   1.404       .  A
C1609      H1616   1.084       .  S
C1610      C1941   1.414       .  A
C1611      C1940   1.414       .  A
C1611      C1612   1.404       .  A
C1611      N1618   1.442       .  S
C1612      C1943   1.403       .  A
C1612      H1617   1.084       .  S
C1613      C1942   1.403       .  A
C1613      C1614   1.413       .  A
C1614      N1615   1.436       .  S
N1615      O1619   1.261       .  A
N1615      O1620   1.263       .  A
N1618      O1621   1.263       .  A
N1618      O1622   1.263       .  A
C1623      C1954   1.401       .  A
C1623      C1628   1.408       .  A
C1623      H1630   1.084       .  S
C1624      C1953   1.401       .  A
C1624      C1625   1.409       .  A
C1625      C1626   1.398       .  A
C1625      N1632   1.437       .  S
C1626      C1627   1.400       .  A
C1626      H1631   1.083       .  S
C1627      C1958   1.418       .  A
C1627      C1655   1.472       .  S
C1628      C1957   1.418       .  A
C1628      N1629   1.445       .  S
N1629      O1633   1.263       .  A
N1629      O1634   1.262       .  A
N1632      O1635   1.262       .  A
N1632      O1636   1.262       .  A
C1637      C1968   1.400   1_554  A
C1637      C1642   1.402       .  A
C1637      H1644   1.084       .  S
C1638      C1967   1.400       .  A
C1638      C1639   1.415       .  A
C1639      C1640   1.406       .  A
C1639      N1646   1.444       .  S
C1640      C1641   1.404       .  A
C1640      H1645   1.084       .  S
C1641      C1972   1.412       .  A
C1642      C1971   1.412   1_554  A
C1642      N1643   1.435       .  S
N1643      O1647   1.262       .  A
N1643      O1648   1.262       .  A
N1646      O1649   1.263       .  A
N1646      O1650   1.263       .  A
C1651      C1652   1.412       .  A
C1651      C1770   1.483       .  S
C1652      C1653   1.403       .  A
C1652      H1657   1.083       .  S
C1653      C1971   1.478       .  S
C1654      C1655   1.396       .  A
C1654      H1658   1.085       .  S
C1655      C1656   1.399       .  A
C1656      H1659   1.084       .  S
C1660      C1661   1.411       .  A
C1660      C1665   1.410   1_554  A
C1660      C1771   1.482   1_554  S
C1661      C1662   1.403       .  A
C1661      H1666   1.084       .  S
C1662      C1663   1.399       .  A
C1662      C1943   1.478       .  S
C1663      C1664   1.398   1_554  A
C1663      H1667   1.085       .  S
C1664      C1665   1.400       .  A
C1664      C1968   1.475       .  S
C1665      H1668   1.084       .  S
C1669      C1670   1.412       .  A
C1669      C1674   1.413   1_554  A
C1669      C1801   1.484       .  S
C1670      C1671   1.400       .  A
C1670      H1675   1.084       .  S
C1671      C1672   1.398       .  A
C1671      C1940   1.479       .  S
C1672      C1673   1.401       .  A
C1672      H1676   1.085       .  S
C1673      C1674   1.404   1_554  A
C1673      C1926   1.485   1_554  S
C1674      H1677   1.083       .  S
C1678      C1679   1.409       .  A
C1678      C1683   1.414   1_554  A
C1678      C1802   1.482       .  S
C1679      C1680   1.396       .  A
C1679      H1684   1.084       .  S
C1680      C1681   1.395       .  A
C1680      C1954   1.471       .  S
C1681      C1682   1.402   1_554  A
C1681      H1685   1.085       .  S
C1682      C1683   1.406       .  A
C1682      C1929   1.488       .  S
C1683      H1686   1.083       .  S
C1687      C1688   1.417       .  A
C1687      C1692   1.408       .  A
C1687      C1773   1.486       .  S
C1688      C1689   1.421       .  A
C1688      H1693   1.079       .  S
C1689      C1690   1.409       .  A
C1689      C1898   1.518       .  S
C1690      C1691   1.392       .  A
C1690      H1694   1.078       .  S
C1691      C1692   1.391       .  A
C1691      C1912   1.478       .  S
C1692      H1695   1.084       .  S
C1696      C1697   1.411       .  A
C1696      C1701   1.414       .  A
C1696      C1808   1.487       .  S
C1697      C1698   1.399       .  A
C1697      H1702   1.084       .  S
C1698      C1699   1.397       .  A
C1698      C1915   1.477       .  S
C1699      C1700   1.404       .  A
C1699      H1703   1.084       .  S
C1700      C1701   1.407       .  A
C1700      C1884   1.491       .  S
C1701      H1704   1.083       .  S
C1705      C1706   1.407       .  A
C1705      C1710   1.414       .  A
C1705      C1807   1.484       .  S
C1706      C1707   1.393       .  A
C1706      H1711   1.084       .  S
C1707      C1708   1.397       .  A
C1707      C1873   1.475       .  S
C1708      C1709   1.408       .  A
C1708      H1712   1.084       .  S
C1709      C1710   1.411       .  A
C1709      C1887   1.499       .  S
C1710      H1713   1.082       .  S
C1714      C1715   1.417       .  A
C1714      C1719   1.409       .  A
C1714      C1772   1.483       .  S
C1715      C1716   1.413       .  A
C1715      H1720   1.081       .  S
C1716      C1717   1.410       .  A
C1716      C1901   1.507       .  S
C1717      C1718   1.391       .  A
C1717      H1721   1.083       .  S
C1718      C1719   1.391       .  A
C1718      C1870   1.474       .  S
C1719      H1722   1.083       .  S
C1723      C1724   1.409       .  A
C1723      C1728   1.409       .  A
C1723      C1804   1.479       .  S
C1724      C1725   1.400       .  A
C1724      H1729   1.084       .  S
C1725      C1726   1.399       .  A
C1725      C1856   1.474       .  S
C1726      C1727   1.398       .  A
C1726      H1730   1.085       .  S
C1727      C1728   1.398       .  A
C1727      C1842   1.471       .  S
C1728      H1731   1.084       .  S
C1732      C1733   1.410       .  A
C1732      C1737   1.410       .  A
C1732      C1805   1.480       .  S
C1733      C1734   1.399       .  A
C1733      H1738   1.083       .  S
C1734      C1735   1.397       .  A
C1734      C1859   1.472       .  S
C1735      C1736   1.397       .  A
C1735      H1739   1.085       .  S
C1736      C1737   1.399       .  A
C1736      C1828   1.471       .  S
C1737      H1740   1.084       .  S
C1741      C1742   1.411       .  A
C1741      C1746   1.412       .  A
C1741      C1803   1.482       .  S
C1742      C1743   1.399       .  A
C1742      H1747   1.084       .  S
C1743      C1744   1.396       .  A
C1743      C1845   1.472       .  S
C1744      C1745   1.396       .  A
C1744      H1748   1.085       .  S
C1745      C1746   1.402       .  A
C1745      C1817   1.474       .  S
C1746      H1749   1.083       .  S
C1750      C1751   1.410       .  A
C1750      C1755   1.412       .  A
C1750      C1806   1.483       .  S
C1751      C1752   1.398       .  A
C1751      H1756   1.084       .  S
C1752      C1753   1.395       .  A
C1752      C1831   1.470       .  S
C1753      C1754   1.396       .  A
C1753      H1757   1.085       .  S
C1754      C1755   1.403       .  A
C1754      C1814   1.473       .  S
C1755      H1758   1.083       .  S
O1759      C1770   1.291       .  A
O1759     Eu1795   2.454       .  S
O1760      C1771   1.292       .  A
O1760     Eu1794   2.456       .  S
O1761      C1772   1.291       .  A
O1762      C1773   1.291       .  A
O1762     Eu1767   2.447       .  S
O1763      C1773   1.293       .  A
O1763     Eu1797   2.471       .  S
O1764      C1772   1.291       .  A
O1764     Eu1796   2.463       .  S
O1765      C1771   1.291       .  A
O1765     Eu2427   2.456   1_545  S
O1766      C1770   1.292       .  A
O1766     Eu1767   2.458       .  S
Eu1767     O2425   2.456       .  S
Eu1767     O1777   2.346       .  S
Eu1767     O2428   2.350       .  S
Eu1767     O2105   2.348   1_556  S
O1768     Eu2427   2.350   1_545  S
O1768     Eu2457   2.353   1_545  S
O1768     Eu1794   2.352       .  S
O1769     Eu1796   2.350       .  S
H1774      O1775   0.966       .  S
O1775     Eu2097   2.348   1_545  S
O1775     Eu2456   2.351   1_545  S
H1776      O1777   0.966       .  S
O1777     Eu1795   2.352       .  S
O1777     Eu1797   2.352       .  S
O1778      C1801   1.292       .  A
O1779      C1802   1.290   1_556  A
O1780      C1803   1.291       .  A
O1780     Eu2456   2.452   1_545  S
O1781      C1804   1.290       .  A
O1781     Eu2457   2.449   1_545  S
O1782      C1805   1.291       .  A
O1782     Eu1797   2.452       .  S
O1783      C1806   1.291       .  A
O1783     Eu1796   2.453       .  S
O1784      C1807   1.292       .  A
O1785      C1808   1.293       .  A
O1785     Eu1798   2.462       .  S
O1786      C1807   1.290       .  A
O1787      C1808   1.292       .  A
O1788      C1803   1.291       .  A
O1789      C1806   1.291       .  A
O1790      C1805   1.291       .  A
O1790     Eu1795   2.451       .  S
O1791      C1804   1.291       .  A
O1791     Eu1794   2.452       .  S
O1792      C1801   1.291       .  A
O1792     Eu2458   2.454   1_544  S
O1793      C1802   1.292       .  A
O1793     Eu1798   2.457   1_554  S
Eu1796     O2440   2.452       .  S
Eu1796     O2435   2.351       .  S
Eu1797     O2441   2.449       .  S
Eu1797     O2428   2.353       .  S
Eu1798     O2452   2.452   1_556  S
Eu1798     O1799   2.345       .  S
Eu1798     O2472   2.351       .  S
Eu1798     O2130   2.343   1_556  S
O1800     Eu2128   2.343   1_545  S
H1809      O1810   0.966       .  S
H1811      O1812   0.966       .  S
O1812     Eu2458   2.351   1_545  S
C1813      C1818   1.409       .  A
C1813      H1820   1.083       .  S
C1814      C1815   1.413       .  A
C1815      C1816   1.402       .  A
C1815      N1822   1.444       .  S
C1816      C1817   1.402       .  A
C1816      H1821   1.084       .  S
C1818      N1819   1.449       .  S
N1819      O1823   1.263       .  A
N1819      O1824   1.262       .  A
N1822      O1825   1.263       .  A
N1822      O1826   1.263       .  A
C1827      C1832   1.405       .  A
C1827      H1834   1.084       .  S
C1828      C1829   1.413       .  A
C1829      C1830   1.402       .  A
C1829      N1836   1.443       .  S
C1830      C1831   1.402       .  A
C1830      H1835   1.084       .  S
C1832      N1833   1.448       .  S
N1833      O1837   1.263       .  A
N1833      O1838   1.262       .  A
N1836      O1839   1.262       .  A
N1836      O1840   1.263       .  A
C1841      C1846   1.403       .  A
C1841      H1848   1.084       .  S
C1842      C1843   1.418       .  A
C1843      C1844   1.405       .  A
C1843      N1850   1.446       .  S
C1844      C1845   1.401       .  A
C1844      H1849   1.084       .  S
C1846      N1847   1.443       .  S
N1847      O1851   1.263       .  A
N1847      O1852   1.263       .  A
N1850      O1853   1.262       .  A
N1850      O1854   1.263       .  A
C1855      C1860   1.403       .  A
C1855      H1862   1.084       .  S
C1856      C1857   1.415       .  A
C1857      C1858   1.404       .  A
C1857      N1864   1.441       .  S
C1858      C1859   1.401       .  A
C1858      H1863   1.084       .  S
C1860      N1861   1.443       .  S
N1861      O1865   1.263       .  A
N1861      O1866   1.263       .  A
N1864      O1867   1.262       .  A
N1864      O1868   1.263       .  A
C1869      C1870   1.403       .  A
C1869      C1874   1.402       .  A
C1869      H1876   1.084       .  S
C1870      C2531   1.413       .  A
C1871      C2530   1.413   1_545  A
C1871      C1872   1.405       .  A
C1871      N1878   1.441       .  S
C1872      C2533   1.403   1_545  A
C1872      H1877   1.084       .  S
C1873      C2532   1.403       .  A
C1873      C1874   1.411       .  A
C1874      N1875   1.439       .  S
N1875      O1879   1.262       .  A
N1875      O1880   1.262       .  A
N1878      O1881   1.263       .  A
N1878      O1882   1.263       .  A
C1883      C1884   1.405       .  A
C1883      C1888   1.408       .  A
C1883      H1890   1.084       .  S
C1884      C1885   1.415       .  A
C1885      C1886   1.402       .  A
C1885      N1892   1.440       .  S
C1886      C1887   1.407       .  A
C1886      H1891   1.083       .  S
C1887      C1888   1.418       .  A
C1888      N1889   1.431       .  S
N1889      O1893   1.262       .  A
N1889      O1894   1.262       .  A
N1892      O1895   1.263       .  A
N1892      O2556   1.263       .  A
O1896      N2552   1.263       .  A
C1897      C1898   1.417       .  A
C1897      C1902   1.419       .  A
C1897      H1904   1.079       .  S
C1898      C1899   1.425       .  A
C1899      C1900   1.387       .  A
C1899      N1906   1.437       .  S
C1900      C1901   1.403       .  A
C1900      H1905   1.082       .  S
C1901      C1902   1.421       .  A
C1902      N1903   1.436       .  S
N1903      O2567   1.263       .  A
N1903      O1908   1.263       .  A
N1906      O1909   1.263       .  A
N1906      O1910   1.263       .  A
O1907      N2563   1.263   1_545  A
C1911      C2572   1.402       .  A
C1911      C1916   1.402   1_565  A
C1911      H1918   1.084   1_565  S
C1912      C2571   1.402       .  A
C1912      C1913   1.412       .  A
C1913      C1914   1.408       .  A
C1913      N1920   1.439       .  S
C1914      C1915   1.404       .  A
C1914      H1919   1.083       .  S
C1915      C2576   1.413       .  A
C1916      C2575   1.413   1_545  A
C1916      N1917   1.442       .  S
N1917      O1921   1.263       .  A
N1917      O1922   1.262       .  A
N1920      O1923   1.263       .  A
N1920      O1924   1.262       .  A
C1925      C1930   1.408       .  A
C1925      H1932   1.084       .  S
C1926      C1927   1.415       .  A
C1927      C1928   1.400       .  A
C1927      N1934   1.441       .  S
C1928      C1929   1.404       .  A
C1928      H1933   1.084       .  S
C1930      N1931   1.434       .  S
N1931      O1936   1.262       .  A
N1934      O1937   1.263       .  A
C1939      C1940   1.402   1_556  A
C1939      C1944   1.404       .  A
C1939      H1946   1.084       .  S
C1941      C1942   1.404       .  A
C1941      N1948   1.442       .  S
C1942      H1947   1.084       .  S
C1943      C1944   1.413   1_554  A
C1944      N1945   1.436       .  S
N1945      O1949   1.261       .  A
N1945      O1950   1.263       .  A
N1948      O1951   1.263       .  A
N1948      O1952   1.263       .  A
C1953      C1958   1.408       .  A
C1953      H1960   1.084       .  S
C1954      C1955   1.409   1_554  A
C1955      C1956   1.398       .  A
C1955      N1962   1.437       .  S
C1956      C1957   1.400   1_556  A
C1956      H1961   1.083       .  S
C1958      N1959   1.445       .  S
N1959      O1963   1.263       .  A
N1959      O1964   1.262       .  A
N1962      O1965   1.262       .  A
N1962      O1966   1.262       .  A
C1967      C1972   1.402       .  A
C1967      H1974   1.084       .  S
C1968      C1969   1.415       .  A
C1969      C1970   1.406       .  A
C1969      N1976   1.444       .  S
C1970      C1971   1.404       .  A
C1970      H1975   1.084       .  S
C1972      N1973   1.435       .  S
N1973      O1977   1.262       .  A
N1973      O1978   1.262       .  A
N1976      O1979   1.263       .  A
N1976      O1980   1.263       .  A
C1981      C1982   1.412       .  A
C1981      C2316   1.409       .  A
C1981      C2100   1.483       .  S
C1982      C1983   1.403       .  A
C1982      H1987   1.083       .  S
C1983      C2314   1.398       .  A
C1983      C2301   1.478       .  S
C1984      C2313   1.398       .  A
C1984      C1985   1.396   1_556  A
C1984      H1988   1.085       .  S
C1985      C1986   1.399   1_554  A
C1985      C2617   1.472       .  S
C1986      C2311   1.409       .  A
C1986      H1989   1.084   1_556  S
C1990      C1991   1.411       .  A
C1990      C1995   1.410       .  A
C1990      C2101   1.482       .  S
C1991      C1992   1.402       .  A
C1991      H1996   1.084       .  S
C1992      C1993   1.399       .  A
C1992      C2273   1.478       .  S
C1993      C1994   1.398       .  A
C1993      H1997   1.085       .  S
C1994      C1995   1.400       .  A
C1994      C2298   1.475       .  S
C1995      H1998   1.084       .  S
C1999      C2000   1.412       .  A
C1999      C2004   1.413       .  A
C1999      C2131   1.484       .  S
C2000      C2001   1.400       .  A
C2000      H2005   1.084       .  S
C2001      C2002   1.398       .  A
C2001      C2270   1.479       .  S
C2002      C2003   1.401       .  A
C2002      H2006   1.085       .  S
C2003      C2004   1.403       .  A
C2003      C2256   1.484       .  S
C2004      H2007   1.083       .  S
C2008      C2009   1.409       .  A
C2008      C2013   1.414       .  A
C2008      C2132   1.482       .  S
C2009      C2010   1.396       .  A
C2009      H2014   1.084       .  S
C2010      C2011   1.395       .  A
C2010      C2284   1.471       .  S
C2011      C2012   1.402       .  A
C2011      H2015   1.085       .  S
C2012      C2013   1.406       .  A
C2012      C2259   1.488       .  S
C2013      H2016   1.083       .  S
C2017      C2018   1.417       .  A
C2017      C2022   1.408       .  A
C2017      C2103   1.486       .  S
C2018      C2019   1.421       .  A
C2018      H2023   1.079       .  S
C2019      C2020   1.409       .  A
C2019      C2228   1.518       .  S
C2020      C2021   1.392       .  A
C2020      H2024   1.078       .  S
C2021      C2022   1.391       .  A
C2021      C2242   1.478       .  S
C2022      H2025   1.084       .  S
C2026      C2027   1.411       .  A
C2026      C2031   1.414       .  A
C2026      C2138   1.487       .  S
C2027      C2028   1.399       .  A
C2027      H2032   1.084       .  S
C2028      C2029   1.397       .  A
C2028      C2245   1.477       .  S
C2029      C2030   1.404       .  A
C2029      H2033   1.084       .  S
C2030      C2031   1.407       .  A
C2030      C2214   1.491       .  S
C2031      H2034   1.083       .  S
C2035      C2036   1.407       .  A
C2035      C2040   1.415       .  A
C2035      C2137   1.484       .  S
C2036      C2037   1.393       .  A
C2036      H2041   1.084       .  S
C2037      C2038   1.397       .  A
C2037      C2203   1.475       .  S
C2038      C2039   1.408       .  A
C2038      H2042   1.084       .  S
C2039      C2040   1.411       .  A
C2039      C2217   1.500   1_565  S
C2040      H2043   1.082       .  S
C2044      C2045   1.417       .  A
C2044      C2049   1.409       .  A
C2044      C2102   1.483       .  S
C2045      C2046   1.413       .  A
C2045      H2050   1.081       .  S
C2046      C2047   1.410       .  A
C2046      C2231   1.507       .  S
C2047      C2048   1.391       .  A
C2047      H2051   1.083   1_565  S
C2048      C2049   1.391       .  A
C2048      C2200   1.474       .  S
C2049      H2052   1.083       .  S
C2053      C2054   1.409       .  A
C2053      C2058   1.409       .  A
C2053      C2134   1.479       .  S
C2054      C2055   1.400       .  A
C2054      H2059   1.084       .  S
C2055      C2056   1.399       .  A
C2055      C2186   1.474       .  S
C2056      C2057   1.398       .  A
C2056      H2060   1.085       .  S
C2057      C2058   1.398       .  A
C2057      C2172   1.471       .  S
C2058      H2061   1.084       .  S
C2062      C2063   1.410       .  A
C2062      C2067   1.410       .  A
C2062      C2135   1.480       .  S
C2063      C2064   1.399       .  A
C2063      H2068   1.083       .  S
C2064      C2065   1.397       .  A
C2064      C2189   1.472       .  S
C2065      C2066   1.397       .  A
C2065      H2069   1.085       .  S
C2066      C2067   1.399       .  A
C2066      C2158   1.471       .  S
C2067      H2070   1.084       .  S
C2071      C2072   1.411       .  A
C2071      C2076   1.412       .  A
C2071      C2133   1.482       .  S
C2072      C2073   1.399       .  A
C2072      H2077   1.084       .  S
C2073      C2074   1.396       .  A
C2073      C2175   1.472       .  S
C2074      C2075   1.396       .  A
C2074      H2078   1.085       .  S
C2075      C2076   1.402       .  A
C2075      C2147   1.474       .  S
C2076      H2079   1.083       .  S
C2080      C2081   1.410       .  A
C2080      C2085   1.412       .  A
C2080      C2136   1.483       .  S
C2081      C2082   1.398       .  A
C2081      H2086   1.084       .  S
C2082      C2083   1.395       .  A
C2082      C2161   1.470       .  S
C2083      C2084   1.396       .  A
C2083      H2087   1.085       .  S
C2084      C2085   1.403       .  A
C2084      C2144   1.473       .  S
C2085      H2088   1.083       .  S
O2089      C2100   1.291       .  A
O2089     Eu2125   2.455       .  S
O2090      C2101   1.292       .  A
O2090     Eu2124   2.456       .  S
O2091      C2102   1.291       .  A
O2091     Eu2427   2.448   1_554  S
O2092      C2103   1.291       .  A
O2092     Eu2097   2.447       .  S
O2093      C2103   1.293       .  A
O2093     Eu2127   2.471       .  S
O2094      C2102   1.291       .  A
O2094     Eu2126   2.463       .  S
O2095      C2101   1.291       .  A
O2096      C2100   1.292       .  A
O2096     Eu2097   2.458       .  S
Eu2097     O2421   2.448       .  S
Eu2097     O2107   2.346       .  S
Eu2097     O2429   2.348       .  S
O2098     Eu2124   2.352       .  S
O2099     Eu2427   2.348   1_554  S
O2099     Eu2455   2.350   1_554  S
O2099     Eu2126   2.350       .  S
H2104      O2105   0.966       .  S
O2105     Eu2454   2.354   1_554  S
H2106      O2107   0.966       .  S
O2107     Eu2125   2.352       .  S
O2107     Eu2127   2.352       .  S
O2108      C2131   1.292       .  A
O2109      C2132   1.290       .  A
O2110      C2133   1.291       .  A
O2111      C2134   1.290       .  A
O2112      C2135   1.291       .  A
O2112     Eu2127   2.452       .  S
O2113      C2136   1.291       .  A
O2113     Eu2126   2.453       .  S
O2114      C2137   1.292       .  A
O2114     Eu2458   2.455   1_554  S
O2115      C2138   1.293       .  A
O2115     Eu2128   2.462       .  S
O2116      C2137   1.290       .  A
O2117      C2138   1.292       .  A
O2118      C2133   1.291       .  A
O2118     Eu2454   2.457   1_554  S
O2119      C2136   1.291       .  A
O2119     Eu2455   2.458   1_554  S
O2120      C2135   1.291       .  A
O2120     Eu2125   2.451       .  S
O2121      C2134   1.291       .  A
O2121     Eu2124   2.452       .  S
O2122      C2131   1.291       .  A
O2123      C2132   1.292       .  A
O2123     Eu2128   2.457       .  S
Eu2124     O2448   2.457       .  S
Eu2124     O2435   2.354       .  S
Eu2125     O2449   2.458       .  S
Eu2125     O2429   2.350       .  S
Eu2128     O2444   2.455       .  S
Eu2128     O2129   2.345       .  S
Eu2128     O2470   2.352       .  S
H2139      O2140   0.966       .  S
O2140     Eu2458   2.353   1_554  S
H2141      O2142   0.966       .  S
C2143      C2148   1.409       .  A
C2143      H2150   1.083       .  S
C2144      C2145   1.413       .  A
C2145      C2146   1.402       .  A
C2145      N2152   1.444       .  S
C2146      C2147   1.402       .  A
C2146      H2151   1.084       .  S
C2148      N2149   1.449       .  S
N2149      O2153   1.263       .  A
N2149      O2154   1.262       .  A
N2152      O2155   1.263       .  A
N2152      O2156   1.263       .  A
C2157      C2162   1.405       .  A
C2157      H2164   1.084       .  S
C2158      C2159   1.413       .  A
C2159      C2160   1.402       .  A
C2159      N2166   1.443       .  S
C2160      C2161   1.402       .  A
C2160      H2165   1.084       .  S
C2162      N2163   1.448       .  S
N2163      O2167   1.263       .  A
N2163      O2168   1.262       .  A
N2166      O2169   1.262       .  A
N2166      O2170   1.263       .  A
C2171      C2176   1.403       .  A
C2171      H2178   1.084       .  S
C2172      C2173   1.418       .  A
C2173      C2174   1.405       .  A
C2173      N2180   1.446       .  S
C2174      C2175   1.401       .  A
C2174      H2179   1.084       .  S
C2176      N2177   1.443       .  S
N2177      O2181   1.263       .  A
N2177      O2182   1.263       .  A
N2180      O2183   1.262       .  A
N2180      O2184   1.263       .  A
C2185      C2190   1.403       .  A
C2185      H2192   1.084       .  S
C2186      C2187   1.415       .  A
C2187      C2188   1.404       .  A
C2187      N2194   1.441       .  S
C2188      C2189   1.401       .  A
C2188      H2193   1.084       .  S
C2190      N2191   1.443       .  S
N2191      O2195   1.263       .  A
N2191      O2196   1.263       .  A
N2194      O2197   1.262       .  A
N2194      O2198   1.263       .  A
C2199      C2200   1.403       .  A
C2199      C2204   1.402       .  A
C2199      H2206   1.084       .  S
C2201      C2202   1.405       .  A
C2201      N2208   1.441       .  S
C2202      H2207   1.084       .  S
C2203      C2204   1.411       .  A
C2204      N2205   1.439       .  S
N2205      O2209   1.262       .  A
N2205      O2210   1.262       .  A
N2208      O2211   1.263       .  A
N2208      O2212   1.263       .  A
C2213      C2214   1.405       .  A
C2213      C2218   1.408       .  A
C2213      H2220   1.084       .  S
C2214      C2215   1.415   1_565  A
C2215      C2216   1.402       .  A
C2215      N2222   1.440       .  S
C2216      C2217   1.407       .  A
C2216      H2221   1.083       .  S
C2217      C2218   1.418   1_545  A
C2218      N2219   1.431       .  S
N2219      O2223   1.262       .  A
N2219      O2224   1.262       .  A
N2222      O2225   1.263       .  A
C2227      C2228   1.417       .  A
C2227      C2232   1.419       .  A
C2227      H2234   1.079       .  S
C2228      C2229   1.425       .  A
C2229      C2230   1.387       .  A
C2229      N2236   1.437       .  S
C2230      C2231   1.403       .  A
C2230      H2235   1.082       .  S
C2231      C2232   1.421       .  A
C2232      N2233   1.436       .  S
N2233      O2238   1.263       .  A
N2236      O2239   1.263   1_565  A
N2236      O2240   1.263       .  A
C2241      C2246   1.402       .  A
C2241      H2248   1.084       .  S
C2242      C2243   1.412       .  A
C2243      C2244   1.408       .  A
C2243      N2250   1.439       .  S
C2244      C2245   1.404       .  A
C2244      H2249   1.083       .  S
C2246      N2247   1.442       .  S
N2247      O2251   1.263       .  A
N2247      O2252   1.262       .  A
N2250      O2253   1.263       .  A
N2250      O2254   1.262       .  A
C2255      C2586   1.404   1_554  A
C2255      C2260   1.408       .  A
C2255      H2262   1.084       .  S
C2256      C2585   1.404       .  A
C2256      C2257   1.415       .  A
C2257      C2258   1.400       .  A
C2257      N2264   1.441       .  S
C2258      C2259   1.404       .  A
C2258      H2263   1.084       .  S
C2259      C2590   1.416       .  A
C2260      C2589   1.416   1_554  A
C2260      N2261   1.434       .  S
N2261      O2595   1.262       .  A
N2261      O2266   1.262       .  A
N2264      O2267   1.263       .  A
N2264      O2598   1.263       .  A
O2265      N2591   1.262       .  A
O2268      N2594   1.263       .  A
C2269      C2270   1.402       .  A
C2269      C2274   1.404       .  A
C2269      H2276   1.084       .  S
C2270      C2601   1.414       .  A
C2271      C2600   1.414       .  A
C2271      C2272   1.404       .  A
C2271      N2278   1.442       .  S
C2272      C2603   1.403       .  A
C2272      H2277   1.084       .  S
C2273      C2602   1.403       .  A
C2273      C2274   1.413       .  A
C2274      N2275   1.436       .  S
N2275      O2279   1.261       .  A
N2275      O2280   1.263       .  A
N2278      O2281   1.263       .  A
N2278      O2282   1.263       .  A
C2283      C2614   1.401       .  A
C2283      C2288   1.408       .  A
C2283      H2290   1.084       .  S
C2284      C2613   1.401       .  A
C2284      C2285   1.409       .  A
C2285      C2286   1.398       .  A
C2285      N2292   1.437       .  S
C2286      C2287   1.400       .  A
C2286      H2291   1.083       .  S
C2287      C2618   1.418       .  A
C2287      C2315   1.472       .  S
C2288      C2617   1.418       .  A
C2288      N2289   1.445       .  S
N2289      O2293   1.263       .  A
N2289      O2294   1.262       .  A
N2292      O2295   1.262       .  A
N2292      O2296   1.262       .  A
C2297      C2628   1.400   1_554  A
C2297      C2302   1.402       .  A
C2297      H2304   1.084       .  S
C2298      C2627   1.400       .  A
C2298      C2299   1.415       .  A
C2299      C2300   1.406       .  A
C2299      N2306   1.444       .  S
C2300      C2301   1.404       .  A
C2300      H2305   1.084       .  S
C2301      C2632   1.412       .  A
C2302      C2631   1.412   1_554  A
C2302      N2303   1.435       .  S
N2303      O2307   1.262       .  A
N2303      O2308   1.262       .  A
N2306      O2309   1.263       .  A
N2306      O2310   1.263       .  A
C2311      C2312   1.412       .  A
C2311      C2430   1.483       .  S
C2312      C2313   1.403       .  A
C2312      H2317   1.083       .  S
C2313      C2631   1.478       .  S
C2314      C2315   1.396       .  A
C2314      H2318   1.085       .  S
C2315      C2316   1.399       .  A
C2316      H2319   1.084       .  S
C2320      C2321   1.411       .  A
C2320      C2325   1.410   1_554  A
C2320      C2431   1.482   1_554  S
C2321      C2322   1.402       .  A
C2321      H2326   1.084       .  S
C2322      C2323   1.399       .  A
C2322      C2603   1.478       .  S
C2323      C2324   1.398   1_554  A
C2323      H2327   1.085       .  S
C2324      C2325   1.400       .  A
C2324      C2628   1.475       .  S
C2325      H2328   1.084       .  S
C2329      C2330   1.412       .  A
C2329      C2334   1.412   1_554  A
C2329      C2461   1.483       .  S
C2330      C2331   1.400       .  A
C2330      H2335   1.084       .  S
C2331      C2332   1.398       .  A
C2331      C2600   1.479       .  S
C2332      C2333   1.401       .  A
C2332      H2336   1.085       .  S
C2333      C2334   1.403   1_554  A
C2333      C2586   1.484   1_554  S
C2334      H2337   1.083       .  S
C2338      C2339   1.409       .  A
C2338      C2343   1.414   1_554  A
C2338      C2462   1.482       .  S
C2339      C2340   1.396       .  A
C2339      H2344   1.084       .  S
C2340      C2341   1.395       .  A
C2340      C2614   1.471       .  S
C2341      C2342   1.402   1_554  A
C2341      H2345   1.085       .  S
C2342      C2343   1.406       .  A
C2342      C2589   1.488       .  S
C2343      H2346   1.083       .  S
C2347      C2348   1.417       .  A
C2347      C2352   1.408       .  A
C2347      C2433   1.486       .  S
C2348      C2349   1.421       .  A
C2348      H2353   1.079       .  S
C2349      C2350   1.409       .  A
C2349      C2558   1.518       .  S
C2350      C2351   1.392       .  A
C2350      H2354   1.078       .  S
C2351      C2352   1.391       .  A
C2351      C2572   1.478       .  S
C2352      H2355   1.084       .  S
C2356      C2357   1.411       .  A
C2356      C2361   1.414       .  A
C2356      C2468   1.487       .  S
C2357      C2358   1.399       .  A
C2357      H2362   1.084       .  S
C2358      C2359   1.397       .  A
C2358      C2575   1.477       .  S
C2359      C2360   1.404       .  A
C2359      H2363   1.084       .  S
C2360      C2361   1.407       .  A
C2360      C2544   1.491       .  S
C2361      H2364   1.083       .  S
C2365      C2366   1.407       .  A
C2365      C2370   1.415       .  A
C2365      C2467   1.484       .  S
C2366      C2367   1.393       .  A
C2366      H2371   1.084       .  S
C2367      C2368   1.397       .  A
C2367      C2533   1.475       .  S
C2368      C2369   1.408       .  A
C2368      H2372   1.084       .  S
C2369      C2370   1.411       .  A
C2369      C2547   1.500   1_565  S
C2370      H2373   1.082       .  S
C2374      C2375   1.417       .  A
C2374      C2379   1.409       .  A
C2374      C2432   1.483       .  S
C2375      C2376   1.413       .  A
C2375      H2380   1.081       .  S
C2376      C2377   1.410       .  A
C2376      C2561   1.507       .  S
C2377      C2378   1.391       .  A
C2377      H2381   1.083   1_565  S
C2378      C2379   1.391       .  A
C2378      C2530   1.474       .  S
C2379      H2382   1.083       .  S
C2383      C2384   1.409       .  A
C2383      C2388   1.409       .  A
C2383      C2464   1.479       .  S
C2384      C2385   1.400       .  A
C2384      H2389   1.084       .  S
C2385      C2386   1.399       .  A
C2385      C2516   1.474       .  S
C2386      C2387   1.398       .  A
C2386      H2390   1.085       .  S
C2387      C2388   1.398       .  A
C2387      C2502   1.471       .  S
C2388      H2391   1.084       .  S
C2392      C2393   1.410       .  A
C2392      C2397   1.410       .  A
C2392      C2465   1.480       .  S
C2393      C2394   1.399       .  A
C2393      H2398   1.083       .  S
C2394      C2395   1.397       .  A
C2394      C2519   1.472       .  S
C2395      C2396   1.397       .  A
C2395      H2399   1.085       .  S
C2396      C2397   1.399       .  A
C2396      C2488   1.471       .  S
C2397      H2400   1.084       .  S
C2401      C2402   1.411       .  A
C2401      C2406   1.412       .  A
C2401      C2463   1.482       .  S
C2402      C2403   1.399       .  A
C2402      H2407   1.084       .  S
C2403      C2404   1.396       .  A
C2403      C2505   1.472       .  S
C2404      C2405   1.396       .  A
C2404      H2408   1.085       .  S
C2405      C2406   1.402       .  A
C2405      C2477   1.474       .  S
C2406      H2409   1.083       .  S
C2410      C2411   1.410       .  A
C2410      C2415   1.412       .  A
C2410      C2466   1.483       .  S
C2411      C2412   1.398       .  A
C2411      H2416   1.084       .  S
C2412      C2413   1.395       .  A
C2412      C2491   1.470       .  S
C2413      C2414   1.396       .  A
C2413      H2417   1.085       .  S
C2414      C2415   1.403       .  A
C2414      C2474   1.473       .  S
C2415      H2418   1.083       .  S
O2419      C2430   1.291       .  A
O2419     Eu2455   2.455       .  S
O2420      C2431   1.292       .  A
O2420     Eu2454   2.456       .  S
O2421      C2432   1.291       .  A
O2422      C2433   1.291       .  A
O2422     Eu2427   2.447       .  S
O2423      C2433   1.293       .  A
O2423     Eu2457   2.471       .  S
O2424      C2432   1.291       .  A
O2424     Eu2456   2.463       .  S
O2425      C2431   1.292       .  A
O2426      C2430   1.292       .  A
O2426     Eu2427   2.458       .  S
Eu2427     O2437   2.346       .  S
O2428     Eu2454   2.352       .  S
O2429     Eu2456   2.350       .  S
H2434      O2435   0.966       .  S
H2436      O2437   0.966       .  S
O2437     Eu2455   2.352       .  S
O2437     Eu2457   2.352       .  S
O2438      C2461   1.292       .  A
O2439      C2462   1.290   1_556  A
O2440      C2463   1.291       .  A
O2441      C2464   1.290       .  A
O2442      C2465   1.291       .  A
O2442     Eu2457   2.452       .  S
O2443      C2466   1.291       .  A
O2443     Eu2456   2.453       .  S
O2444      C2467   1.292       .  A
O2445      C2468   1.293       .  A
O2445     Eu2458   2.462       .  S
O2446      C2467   1.290       .  A
O2447      C2468   1.292       .  A
O2448      C2463   1.291       .  A
O2449      C2466   1.291       .  A
O2450      C2465   1.291       .  A
O2450     Eu2455   2.451       .  S
O2451      C2464   1.291       .  A
O2451     Eu2454   2.452       .  S
O2452      C2461   1.291       .  A
O2453      C2462   1.292       .  A
O2453     Eu2458   2.458   1_554  S
Eu2458     O2459   2.345       .  S
H2469      O2470   0.966       .  S
H2471      O2472   0.966       .  S
C2473      C2478   1.409       .  A
C2473      H2480   1.083       .  S
C2474      C2475   1.413       .  A
C2475      C2476   1.402       .  A
C2475      N2482   1.444       .  S
C2476      C2477   1.402       .  A
C2476      H2481   1.084       .  S
C2478      N2479   1.449       .  S
N2479      O2483   1.263       .  A
N2479      O2484   1.262       .  A
N2482      O2485   1.263       .  A
N2482      O2486   1.263       .  A
C2487      C2492   1.405       .  A
C2487      H2494   1.084       .  S
C2488      C2489   1.413       .  A
C2489      C2490   1.402       .  A
C2489      N2496   1.443       .  S
C2490      C2491   1.402       .  A
C2490      H2495   1.084       .  S
C2492      N2493   1.448       .  S
N2493      O2497   1.263       .  A
N2493      O2498   1.262       .  A
N2496      O2499   1.262       .  A
N2496      O2500   1.263       .  A
C2501      C2506   1.403       .  A
C2501      H2508   1.084       .  S
C2502      C2503   1.418       .  A
C2503      C2504   1.405       .  A
C2503      N2510   1.446       .  S
C2504      C2505   1.401       .  A
C2504      H2509   1.084       .  S
C2506      N2507   1.443       .  S
N2507      O2511   1.263       .  A
N2507      O2512   1.263       .  A
N2510      O2513   1.262       .  A
N2510      O2514   1.263       .  A
C2515      C2520   1.403       .  A
C2515      H2522   1.084       .  S
C2516      C2517   1.415       .  A
C2517      C2518   1.404       .  A
C2517      N2524   1.441       .  S
C2518      C2519   1.401       .  A
C2518      H2523   1.084       .  S
C2520      N2521   1.443       .  S
N2521      O2525   1.263       .  A
N2521      O2526   1.263       .  A
N2524      O2527   1.262       .  A
N2524      O2528   1.263       .  A
C2529      C2530   1.403       .  A
C2529      C2534   1.402       .  A
C2529      H2536   1.084       .  S
C2531      C2532   1.405       .  A
C2531      N2538   1.441       .  S
C2532      H2537   1.084       .  S
C2533      C2534   1.411       .  A
C2534      N2535   1.439       .  S
N2535      O2539   1.262       .  A
N2535      O2540   1.262       .  A
N2538      O2541   1.263       .  A
N2538      O2542   1.263       .  A
C2543      C2544   1.405       .  A
C2543      C2548   1.408       .  A
C2543      H2550   1.084       .  S
C2544      C2545   1.415   1_565  A
C2545      C2546   1.402       .  A
C2545      N2552   1.440       .  S
C2546      C2547   1.407       .  A
C2546      H2551   1.083       .  S
C2547      C2548   1.418   1_545  A
C2548      N2549   1.431       .  S
N2549      O2553   1.262       .  A
N2549      O2554   1.262       .  A
N2552      O2555   1.263       .  A
C2557      C2558   1.417       .  A
C2557      C2562   1.419       .  A
C2557      H2564   1.079       .  S
C2558      C2559   1.425       .  A
C2559      C2560   1.387       .  A
C2559      N2566   1.437       .  S
C2560      C2561   1.403       .  A
C2560      H2565   1.082       .  S
C2561      C2562   1.421       .  A
C2562      N2563   1.436       .  S
N2563      O2568   1.263       .  A
N2566      O2569   1.263   1_565  A
N2566      O2570   1.263       .  A
C2571      C2576   1.402       .  A
C2571      H2578   1.084       .  S
C2572      C2573   1.412       .  A
C2573      C2574   1.408       .  A
C2573      N2580   1.439       .  S
C2574      C2575   1.404       .  A
C2574      H2579   1.083       .  S
C2576      N2577   1.442       .  S
N2577      O2581   1.263       .  A
N2577      O2582   1.262       .  A
N2580      O2583   1.263       .  A
N2580      O2584   1.262       .  A
C2585      C2590   1.408       .  A
C2585      H2592   1.084       .  S
C2586      C2587   1.415       .  A
C2587      C2588   1.400       .  A
C2587      N2594   1.441       .  S
C2588      C2589   1.404       .  A
C2588      H2593   1.084       .  S
C2590      N2591   1.434       .  S
N2591      O2596   1.262       .  A
N2594      O2597   1.263       .  A
C2599      C2600   1.402   1_556  A
C2599      C2604   1.404       .  A
C2599      H2606   1.084       .  S
C2601      C2602   1.404       .  A
C2601      N2608   1.442       .  S
C2602      H2607   1.084       .  S
C2603      C2604   1.413   1_554  A
C2604      N2605   1.436       .  S
N2605      O2609   1.261       .  A
N2605      O2610   1.263       .  A
N2608      O2611   1.263       .  A
N2608      O2612   1.263       .  A
C2613      C2618   1.408       .  A
C2613      H2620   1.084       .  S
C2614      C2615   1.409   1_554  A
C2615      C2616   1.398       .  A
C2615      N2622   1.437       .  S
C2616      C2617   1.400   1_556  A
C2616      H2621   1.083       .  S
C2618      N2619   1.445       .  S
N2619      O2623   1.263       .  A
N2619      O2624   1.262       .  A
N2622      O2625   1.262       .  A
N2622      O2626   1.262       .  A
C2627      C2632   1.402       .  A
C2627      H2634   1.084       .  S
C2628      C2629   1.415       .  A
C2629      C2630   1.406       .  A
C2629      N2636   1.444       .  S
C2630      C2631   1.404       .  A
C2630      H2635   1.084       .  S
C2632      N2633   1.435       .  S
N2633      O2637   1.262       .  A
N2633      O2638   1.262       .  A
N2636      O2639   1.263       .  A
N2636      O2640   1.263       .  A
