geometry optimzed in LAMMPS
_audit_creation_date              2020-11-30 
_audit_creation_method            'lammps2cif' 
_symmetry_space_group_name_H-M    'P1' 
_symmetry_Int_Tables_number       1 
_symmetry_cell_setting            triclinic 
loop_ 
_symmetry_equiv_pos_as_xyz 
  x,y,z 
_cell_length_a                    34.844127391675784 
_cell_length_b                    34.35417493868911 
_cell_length_c                    34.508248477998784 
_cell_angle_alpha                 91.13798121147497 
_cell_angle_beta                  89.58225607467652 
_cell_angle_gamma                 89.54079242834543 
loop_ 
_atom_site_label 
_atom_site_type_symbol 
_atom_site_fract_x 
_atom_site_fract_y 
_atom_site_fract_z 
_atom_site_charge 
C1          C  0.37902895  0.37696808  0.35176574    -0.03270
C2          C  0.12530290  0.12431482  0.10069990    -0.03270
O3          O  0.46700210  0.47400999  0.40442438    -0.80920
O4          O  0.46473282  0.06433960  0.04276700    -0.80940
O5          O  0.41629578  0.46363535  0.49672294    -0.80950
O6          O  0.52388487  0.09466000  0.43504335    -0.80890
O7          O  0.42578898  0.49765046  0.04984381    -0.81010
O8          O  0.48234974  0.05243463  0.41142781    -0.80930
O9          O  0.46349154  0.07499806  0.98020979    -0.80920
O10         O  0.46498486  0.42561127  0.44558313    -0.80950
C11         C  0.45419793  0.44149882  0.41475433     1.08770
C12         C  0.44841372  0.07848490  0.01324955     1.08660
C13         C  0.40309211  0.48056328  0.52688289     1.08790
C14         C  0.49715789  0.08696470  0.41122670     1.08670
O15         O  0.04085653  0.00631105  0.38669812    -0.80920
O16         O  0.49321789  0.44862741  0.06075678    -0.80990
O17         O  0.02788442  0.43875863  0.49816497    -0.80930
O18         O  0.03821196  0.07206308  0.01116939    -0.80910
O19         O  0.53751231  0.02117682  0.04940675    -0.80960
O20         O  0.03921617  0.45135879  0.43813433    -0.80930
O21         O  0.06433051  0.02649338  0.44312715    -0.80890
O22         O  0.96233367  0.40626590  0.52188158    -0.80960
Co23       Co  0.00889491  0.50177600  0.43093246     1.51530
Co24       Co  0.48184824  0.50801806  0.04565064     1.51690
Co25       Co  0.47243563  0.45213217  0.49639274     1.51570
Co26       Co  0.51206489  0.04981798  0.46474556     1.51470
O27         O  0.48480606  0.50322205  0.48445056    -1.42850
C28         C  0.07000318  0.01530637  0.40711446     1.08700
C29         C  0.98127350  0.41310924  0.05241032     1.08790
C30         C  0.04876047  0.43468721  0.46885734     1.08730
C31         C  0.05024580  0.05443299  0.04064964     1.08700
O32         O  0.28405300  0.31994275  0.42559638    -0.80920
O33         O  0.20712958  0.22194062  0.42061556    -0.80940
O34         O  0.27682651  0.20834652  0.40447397    -0.80950
O35         O  0.18190368  0.30878987  0.50880070    -0.80890
O36         O  0.24833879  0.15854730  0.43187985    -0.81010
O37         O  0.21305706  0.33762281  0.46114970    -0.80930
O38         O  0.16825476  0.24989002  0.46123759    -0.80920
O39         O  0.32619772  0.27157232  0.43078997    -0.80950
C40         C  0.31578651  0.30397560  0.41689109     1.08770
C41         C  0.17511259  0.23633622  0.42765220     1.08660
C42         C  0.26162359  0.17387279  0.40120225     1.08790
C43         C  0.18320826  0.33440399  0.48254612     1.08670
O44         O  0.24894680  0.32733119  0.03415386    -0.80920
O45         O  0.28635580  0.18286448  0.49597479    -0.80990
O46         O  0.31260219  0.24878448  0.50866782    -0.80930
O47         O  0.17022021  0.23222233  0.03567793    -0.80910
O48         O  0.20255156  0.18717362  0.99893678    -0.80960
O49         O  0.31856117  0.31121121  0.00141745    -0.80930
O50         O  0.23866997  0.26673493  0.05166172    -0.80890
O51         O  0.33406092  0.19451181  0.45578758    -0.80960
Co52       Co  0.26532370  0.32117641  0.47918711     1.51530
Co53       Co  0.24494825  0.20704023  0.45973857     1.51690
Co54       Co  0.29379824  0.23241229  0.45788439     1.51570
Co55       Co  0.20640071  0.25603151  0.50491747     1.51470
O56         O  0.24839508  0.26524102  0.47100211    -1.42850
C57         C  0.24773091  0.30172905  0.06004335     1.08700
C58         C  0.32080848  0.17484151  0.48348759     1.08790
C59         C  0.32633751  0.28046428  0.51971155     1.08730
C60         C  0.17727513  0.19699257  0.02575659     1.08700
O61         O  0.44158590  0.30308977  0.25107047    -0.80920
O62         O  0.02028166  0.29340812  0.18178842    -0.80940
O63         O  0.02654417  0.31433218  0.25497277    -0.80950
O64         O  0.43687161  0.22097535  0.15057017    -0.80890
O65         O  0.08171481  0.29554778  0.22933636    -0.81010
O66         O  0.42186939  0.27441195  0.18355319    -0.80930
O67         O  0.51028537  0.24528311  0.13942253    -0.80920
O68         O  0.46919016  0.28415048  0.30247095    -0.80950
C69         C  0.44738404  0.30757808  0.28620657     1.08770
C70         C  0.01480602  0.28164599  0.14753640     1.08660
C71         C  0.06142332  0.32210931  0.24524259     1.08790
C72         C  0.41998807  0.25382957  0.15307101     1.08670
O73         O  0.40973518  0.19861724  0.21654354    -0.80920
O74         O  0.06569624  0.23125498  0.26945504    -0.80990
O75         O  0.49545151  0.20775079  0.28925568    -0.80930
O76         O  0.03505017  0.18010699  0.19063770    -0.80910
O77         O  0.07092005  0.23048160  0.18450797    -0.80960
O78         O  0.43360230  0.22267951  0.28747258    -0.80930
O79         O  0.46093377  0.16232236  0.20426628    -0.80890
O80         O  0.03900061  0.26825959  0.31439377    -0.80960
Co81       Co  0.42985914  0.24993833  0.23429620     1.51530
Co82       Co  0.03946433  0.26169449  0.22347048     1.51690
Co83       Co  0.00982489  0.25847332  0.27029041     1.51570
Co84       Co  0.48655681  0.20351941  0.17393829     1.51470
O85         O  0.48557639  0.23937617  0.22128236    -1.42850
C86         C  0.42673793  0.16590568  0.21676631     1.08700
C87         C  0.06527873  0.24487165  0.30497371     1.08790
C88         C  0.46170767  0.20261204  0.30104078     1.08730
C89         C  0.06510544  0.19481700  0.17784938     1.08700
O90         O  0.29347507  0.46737663  0.28784907    -0.80920
O91         O  0.24102432  0.49405861  0.12971239    -0.80940
O92         O  0.27572886  0.42265539  0.20543757    -0.80950
O93         O  0.32204922  0.02178255  0.22680194    -0.80890
O94         O  0.22331110  0.42869229  0.16985397    -0.81010
O95         O  0.29986242  0.04492564  0.28068221    -0.80930
O96         O  0.29771771  0.00427304  0.15589807    -0.80920
O97         O  0.26405856  0.41040324  0.28294491    -0.80950
C98         C  0.29203110  0.43065926  0.29461692     1.08770
C99         C  0.27769013  0.99400212  0.12736950     1.08660
C100        C  0.25325854  0.40971134  0.17930199     1.08790
C101        C  0.32742244  0.04210600  0.25662146     1.08670
O102        O  0.21848680  0.05426286  0.26614963    -0.80920
O103        O  0.16791080  0.47110055  0.21767954    -0.80990
O104        O  0.21360495  0.47124739  0.29469552    -0.80930
O105        O  0.24027118  0.06476957  0.15982289    -0.80910
O106        O  0.18735057  0.03758383  0.18096117    -0.80960
O107        O  0.24376484  0.51554533  0.33004508    -0.80930
O108        O  0.26332449  0.08479842  0.23449737    -0.80890
O109        O  0.20166190  0.42191176  0.23827084    -0.80960
Co110      Co  0.25304741  0.01023812  0.27509728     1.51530
Co111      Co  0.20677758  0.48428498  0.17744030     1.51690
Co112      Co  0.24937860  0.45062864  0.24924778     1.51570
Co113      Co  0.27964388  0.04136842  0.19538955     1.51470
O114        O  0.24686831  0.49853344  0.21784571    -1.42850
C115        C  0.23687686  0.08510439  0.26050934     1.08700
C116        C  0.16952114  0.43820846  0.23340006     1.08790
C117        C  0.21499056  0.49356880  0.32527448     1.08730
C118        C  0.20391987  0.06352728  0.16222022     1.08700
C119        C  0.37537309  0.13850014  0.25853845    -0.14130
C120        C  0.40531811  0.13221626  0.23143790     0.08020
C121        C  0.41411424  0.09399908  0.21918622    -0.14130
C122        C  0.39092787  0.06318911  0.23092094    -0.14130
C123        C  0.35946621  0.06997579  0.25612560     0.08020
C124        C  0.35370839  0.10742300  0.27183891    -0.14130
H125        H  0.36875561  0.16754179  0.26956655     0.12010
H126        H  0.43735054  0.08827830  0.19880518     0.12010
H127        H  0.39603623  0.03446893  0.21832598     0.12010
H128        H  0.33054531  0.11314411  0.29211322     0.12010
C129        C  0.11082899  0.36006888  0.27696088    -0.14130
C130        C  0.07898112  0.35983054  0.25261615     0.08020
C131        C  0.07255978  0.39106744  0.22783495    -0.14130
C132        C  0.10064309  0.41977128  0.22390845    -0.14130
C133        C  0.13495625  0.41695449  0.24482519     0.08020
C134        C  0.13865255  0.38835051  0.27307222    -0.14130
H135        H  0.11616901  0.33601978  0.29613321     0.12010
H136        H  0.04781214  0.39132735  0.20911061     0.12010
H137        H  0.09716632  0.44174031  0.20210228     0.12010
H138        H  0.16459304  0.38597236  0.29003029     0.12010
C139        C  0.22415933  0.31922457  0.12607573    -0.14130
C140        C  0.25495498  0.31543737  0.09999401     0.08020
C141        C  0.28869534  0.33637258  0.10760868    -0.14130
C142        C  0.29115171  0.36195422  0.13938702    -0.14130
C143        C  0.25816177  0.37088668  0.16089087     0.08020
C144        C  0.22543170  0.34748002  0.15585287    -0.14130
H145        H  0.19743244  0.30436164  0.12036014     0.12010
H146        H  0.31160059  0.33661789  0.08665256     0.12010
H147        H  0.31719217  0.37798860  0.14404702     0.12010
H148        H  0.19955405  0.35366875  0.17254709     0.12010
C149        C  0.22444457  0.12648006  0.36122239    -0.14130
C150        C  0.25287955  0.15523499  0.36294767     0.08020
C151        C  0.27032369  0.16655481  0.32806350    -0.14130
C152        C  0.26202367  0.14674256  0.29291436    -0.14130
C153        C  0.23607006  0.11546366  0.29213383     0.08020
C154        C  0.21575138  0.10743474  0.32639694    -0.14130
H155        H  0.20912675  0.11801828  0.38711470     0.12010
H156        H  0.29146189  0.18948296  0.32820771     0.12010
H157        H  0.27784264  0.15410440  0.26699074     0.12010
H158        H  0.19490783  0.08425179  0.32708682     0.12010
C159        C  0.08139403  0.24369219  0.37457770    -0.14130
C160        C  0.09254183  0.23505550  0.33584975     0.08020
C161        C  0.13062095  0.22444748  0.32794994    -0.14130
C162        C  0.15740015  0.22458543  0.35806409    -0.14130
C163        C  0.14649080  0.23572101  0.39633895     0.08020
C164        C  0.10807747  0.24443762  0.40435056    -0.14130
H165        H  0.05202334  0.25170228  0.38175028     0.12010
H166        H  0.14002073  0.21808113  0.29850554     0.12010
H167        H  0.18693199  0.21704371  0.35113954     0.12010
H168        H  0.09869837  0.25220140  0.43350945     0.12010
C169        C  0.37717080  0.30584205  0.06697021    -0.14130
C170        C  0.34911762  0.27871618  0.05582440     0.08020
C171        C  0.34213906  0.24687665  0.08000041    -0.14130
C172        C  0.36512716  0.23954010  0.11158919    -0.14130
C173        C  0.39416363  0.26524264  0.12176355     0.08020
C174        C  0.39866969  0.29972636  0.10084310    -0.14130
H175        H  0.38233076  0.33133154  0.04978784     0.12010
H176        H  0.31934982  0.22646278  0.07378635     0.12010
H177        H  0.36031616  0.21347505  0.12809025     0.12010
H178        H  0.41957225  0.32101490  0.10993609     0.12010
C179        C  0.40027126  0.12780750  0.04036171    -0.14130
C180        C  0.41018384  0.09739612  0.01439783     0.08020
C181        C  0.38544100  0.08864785  0.48341767    -0.14130
C182        C  0.35354231  0.11188081  0.47619318    -0.14130
C183        C  0.34533232  0.14432948  0.49988576     0.08020
C184        C  0.36798681  0.15138655  0.03290079    -0.14130
H185        H  0.41904649  0.13535343  0.06417091     0.12010
H186        H  0.39230766  0.06513988  0.46304895     0.12010
H187        H  0.33696104  0.10626910  0.45024202     0.12010
H188        H  0.36271428  0.17676950  0.05100738     0.12010
C189        C  0.11113292  0.40688268  0.44112728    -0.14130
C190        C  0.08347004  0.40921948  0.47104503     0.08020
C191        C  0.08922895  0.38690717  0.50427372    -0.14130
C192        C  0.12150402  0.36296912  0.50762540    -0.14130
C193        C  0.14943314  0.36074976  0.47805968     0.08020
C194        C  0.14397663  0.38308296  0.44471243    -0.14130
H195        H  0.10747496  0.42350726  0.41512040     0.12010
H196        H  0.06860871  0.38775736  0.52791337     0.12010
H197        H  0.12464675  0.34628796  0.03373860     0.12010
H198        H  0.16480944  0.38181061  0.42127645     0.12010
C199        C  0.11237600  0.48202494  0.35851215    -0.14130
C200        C  0.10893208  0.00821469  0.39009164     0.08020
C201        C  0.14222905  0.02711861  0.40338386    -0.14130
C202        C  0.17767832  0.02143892  0.38373961    -0.13910
C203        C  0.18039481  0.49616430  0.35108296     0.08020
C204        C  0.14739940  0.47586323  0.33973965    -0.14130
H205        H  0.08765833  0.46629734  0.34782109     0.12010
H206        H  0.14054413  0.04731230  0.42782974     0.12010
H207        H  0.20250150  0.03767196  0.39327061     0.12010
H208        H  0.14806872  0.45622741  0.31500978     0.12010
C209        C  0.30328501  0.50869377  0.06084931    -0.14130
C210        C  0.29926013  0.48272964  0.09164622     0.08020
C211        C  0.32584185  0.45215627  0.09444300    -0.14130
C212        C  0.35672338  0.44828930  0.06865986    -0.14130
C213        C  0.36295597  0.47608161  0.04018926     0.08020
C214        C  0.33526608  0.50567430  0.03553215    -0.14130
H215        H  0.28425208  0.03367312  0.05899365     0.12010
H216        H  0.32525922  0.43408775  0.11940932     0.12010
H217        H  0.37838645  0.42623900  0.07405972     0.12010
H218        H  0.34005494  0.52826346  0.01471025     0.12010
C219        C  0.01748431  0.38250715  0.10676947    -0.14130
C220        C  0.99330700  0.37871188  0.07483214     0.08020
C221        C  0.48183903  0.34090308  0.06287593    -0.14130
C222        C  0.49172092  0.30810556  0.08429373    -0.14130
C223        C  0.01297476  0.31256072  0.11822430     0.08020
C224        C  0.02746340  0.34975717  0.12793388    -0.14130
H225        H  0.02806674  0.41077066  0.11586924     0.12010
H226        H  0.46397937  0.33665423  0.03762094     0.12010
H227        H  0.48040559  0.27992911  0.07589403     0.12010
H228        H  0.04535915  0.35377788  0.15310780     0.12010
C229        C  0.48955735  0.15711472  0.39372654    -0.14130
C230        C  0.48144562  0.11771210  0.38610328     0.08020
C231        C  0.45952338  0.10796496  0.35338314    -0.14130
C232        C  0.44883352  0.13663442  0.32712068    -0.14130
C233        C  0.45826797  0.17581014  0.33378482     0.08020
C234        C  0.47785594  0.18579629  0.36799891    -0.14130
H235        H  0.00621079  0.16565796  0.41882996     0.12010
H236        H  0.45301620  0.07782897  0.34660600     0.12010
H237        H  0.43654663  0.12741776  0.30008936     0.12010
H238        H  0.98693630  0.21553169  0.37316960     0.12010
C239        C  0.15619052  0.10507241  0.12152993    -0.14050
C240        C  0.18032576  0.08875132  0.14009385    -0.15610
C241        C  0.10505884  0.15068398  0.12829131    -0.14050
C242        C  0.08902613  0.17193396  0.15177575    -0.15610
C243        C  0.15777430  0.16764132  0.04672527    -0.14050
C244        C  0.14231730  0.14698980  0.06973479    -0.15610
C245        C  0.07761569  0.07415614  0.06528137    -0.14050
C246        C  0.09906679  0.09536051  0.08327517    -0.15610
C247        C  0.42624528  0.42205245  0.39176608    -0.14050
C248        C  0.40260079  0.40345081  0.37454926    -0.15610
C249        C  0.34159851  0.32551630  0.39368022    -0.14050
C250        C  0.36023871  0.34848177  0.37594951    -0.15610
C251        C  0.34968913  0.39780576  0.33043594    -0.14050
C252        C  0.32338485  0.41273370  0.31385728    -0.15610
C253        C  0.40442617  0.35616641  0.32550400    -0.14050
C254        C  0.42596452  0.33572220  0.30732674    -0.15610
C255        C  0.37902895  0.37696808  0.85176574    -0.03270
C256        C  0.12530290  0.12431482  0.60069991    -0.03270
O257        O  0.46700210  0.47400999  0.90442438    -0.80920
O258        O  0.46473282  0.06433960  0.54276701    -0.80940
O259        O  0.41629578  0.46363535  0.99672294    -0.80950
O260        O  0.52388487  0.09466000  0.93504335    -0.80890
O261        O  0.42578899  0.49765046  0.54984381    -0.81010
O262        O  0.48234973  0.05243463  0.91142780    -0.80930
O263        O  0.46349155  0.07499806  0.48020979    -0.80920
O264        O  0.46498486  0.42561127  0.94558313    -0.80950
C265        C  0.45419793  0.44149882  0.91475433     1.08770
C266        C  0.44841372  0.07848490  0.51324955     1.08660
C267        C  0.40309210  0.48056329  0.02688288     1.08790
C268        C  0.49715789  0.08696470  0.91122670     1.08670
O269        O  0.04085653  0.00631104  0.88669812    -0.80920
O270        O  0.49321789  0.44862741  0.56075678    -0.80990
O271        O  0.02788442  0.43875863  0.99816497    -0.80930
O272        O  0.03821196  0.07206308  0.51116939    -0.80910
O273        O  0.53751231  0.02117682  0.54940676    -0.80960
O274        O  0.03921617  0.45135879  0.93813434    -0.80930
O275        O  0.06433051  0.02649338  0.94312714    -0.80890
O276        O  0.96233367  0.40626590  0.02188158    -0.80960
Co277      Co  0.00889490  0.50177600  0.93093246     1.51530
Co278      Co  0.48184825  0.50801806  0.54565064     1.51690
Co279      Co  0.47243563  0.45213217  0.99639274     1.51570
Co280      Co  0.51206489  0.04981798  0.96474556     1.51470
O281        O  0.48480606  0.50322205  0.98445056    -1.42850
C282        C  0.07000317  0.01530636  0.90711446     1.08700
C283        C  0.98127350  0.41310924  0.55241031     1.08790
C284        C  0.04876046  0.43468721  0.96885734     1.08730
C285        C  0.05024580  0.05443300  0.54064965     1.08700
O286        O  0.28405300  0.31994276  0.92559639    -0.80920
O287        O  0.20712958  0.22194062  0.92061557    -0.80940
O288        O  0.27682652  0.20834652  0.90447398    -0.80950
O289        O  0.18190368  0.30878987  0.00880071    -0.80890
O290        O  0.24833880  0.15854730  0.93187986    -0.81010
O291        O  0.21305706  0.33762281  0.96114970    -0.80930
O292        O  0.16825477  0.24989002  0.96123759    -0.80920
O293        O  0.32619772  0.27157233  0.93078997    -0.80950
C294        C  0.31578651  0.30397561  0.91689110     1.08770
C295        C  0.17511259  0.23633622  0.92765220     1.08660
C296        C  0.26162359  0.17387278  0.90120226     1.08790
C297        C  0.18320826  0.33440399  0.98254612     1.08670
O298        O  0.24894680  0.32733119  0.53415385    -0.80920
O299        O  0.28635580  0.18286448  0.99597479    -0.80990
O300        O  0.31260219  0.24878449  0.00866783    -0.80930
O301        O  0.17022021  0.23222233  0.53567793    -0.80910
O302        O  0.20255155  0.18717362  0.49893677    -0.80960
O303        O  0.31856117  0.31121120  0.50141744    -0.80930
O304        O  0.23866997  0.26673493  0.55166172    -0.80890
O305        O  0.33406092  0.19451182  0.95578759    -0.80960
Co306      Co  0.26532370  0.32117641  0.97918711     1.51530
Co307      Co  0.24494825  0.20704023  0.95973858     1.51690
Co308      Co  0.29379825  0.23241230  0.95788439     1.51570
Co309      Co  0.20640071  0.25603151  0.00491747     1.51470
O310        O  0.24839508  0.26524102  0.97100211    -1.42850
C311        C  0.24773091  0.30172905  0.56004335     1.08700
C312        C  0.32080848  0.17484152  0.98348760     1.08790
C313        C  0.32633751  0.28046429  0.01971155     1.08730
C314        C  0.17727513  0.19699257  0.52575659     1.08700
O315        O  0.44158589  0.30308977  0.75107047    -0.80920
O316        O  0.02028166  0.29340812  0.68178842    -0.80940
O317        O  0.02654417  0.31433218  0.75497277    -0.80950
O318        O  0.43687161  0.22097535  0.65057017    -0.80890
O319        O  0.08171481  0.29554778  0.72933636    -0.81010
O320        O  0.42186939  0.27441194  0.68355318    -0.80930
O321        O  0.51028537  0.24528311  0.63942253    -0.80920
O322        O  0.46919016  0.28415048  0.80247094    -0.80950
C323        C  0.44738404  0.30757807  0.78620656     1.08770
C324        C  0.01480602  0.28164599  0.64753640     1.08660
C325        C  0.06142332  0.32210931  0.74524260     1.08790
C326        C  0.41998808  0.25382956  0.65307100     1.08670
O327        O  0.40973518  0.19861723  0.71654354    -0.80920
O328        O  0.06569624  0.23125499  0.76945504    -0.80990
O329        O  0.49545151  0.20775079  0.78925567    -0.80930
O330        O  0.03505017  0.18010699  0.69063770    -0.80910
O331        O  0.07092005  0.23048161  0.68450797    -0.80960
O332        O  0.43360229  0.22267950  0.78747257    -0.80930
O333        O  0.46093378  0.16232236  0.70426628    -0.80890
O334        O  0.03900060  0.26825959  0.81439377    -0.80960
Co335      Co  0.42985914  0.24993833  0.73429619     1.51530
Co336      Co  0.03946433  0.26169449  0.72347048     1.51690
Co337      Co  0.00982489  0.25847332  0.77029041     1.51570
Co338      Co  0.48655682  0.20351941  0.67393829     1.51470
O339        O  0.48557639  0.23937617  0.72128236    -1.42850
C340        C  0.42673794  0.16590567  0.71676630     1.08700
C341        C  0.06527873  0.24487166  0.80497372     1.08790
C342        C  0.46170766  0.20261204  0.80104077     1.08730
C343        C  0.06510544  0.19481700  0.67784939     1.08700
O344        O  0.29347507  0.46737663  0.78784907    -0.80920
O345        O  0.24102433  0.49405861  0.62971239    -0.80940
O346        O  0.27572886  0.42265539  0.70543757    -0.80950
O347        O  0.32204922  0.02178254  0.72680194    -0.80890
O348        O  0.22331110  0.42869229  0.66985397    -0.81010
O349        O  0.29986242  0.04492563  0.78068221    -0.80930
O350        O  0.29771771  0.00427304  0.65589807    -0.80920
O351        O  0.26405855  0.41040324  0.78294491    -0.80950
C352        C  0.29203110  0.43065926  0.79461692     1.08770
C353        C  0.27769014  0.99400213  0.62736949     1.08660
C354        C  0.25325854  0.40971134  0.67930199     1.08790
C355        C  0.32742244  0.04210599  0.75662146     1.08670
O356        O  0.21848680  0.05426285  0.76614963    -0.80920
O357        O  0.16791080  0.47110055  0.71767954    -0.80990
O358        O  0.21360494  0.47124739  0.79469552    -0.80930
O359        O  0.24027119  0.06476957  0.65982290    -0.80910
O360        O  0.18735057  0.03758383  0.68096118    -0.80960
O361        O  0.24376483  0.51554533  0.83004508    -0.80930
O362        O  0.26332449  0.08479842  0.73449737    -0.80890
O363        O  0.20166190  0.42191176  0.73827084    -0.80960
Co364      Co  0.25304741  0.01023811  0.77509728     1.51530
Co365      Co  0.20677758  0.48428498  0.67744030     1.51690
Co366      Co  0.24937860  0.45062864  0.74924778     1.51570
Co367      Co  0.27964388  0.04136842  0.69538956     1.51470
O368        O  0.24686831  0.49853344  0.71784571    -1.42850
C369        C  0.23687686  0.08510439  0.76050935     1.08700
C370        C  0.16952114  0.43820846  0.73340006     1.08790
C371        C  0.21499056  0.49356880  0.82527448     1.08730
C372        C  0.20391987  0.06352729  0.66222023     1.08700
C373        C  0.37537308  0.13850013  0.75853844    -0.14130
C374        C  0.40531811  0.13221626  0.73143789     0.08020
C375        C  0.41411424  0.09399908  0.71918622    -0.14130
C376        C  0.39092788  0.06318910  0.73092095    -0.14130
C377        C  0.35946621  0.06997578  0.75612560     0.08020
C378        C  0.35370839  0.10742300  0.77183890    -0.14130
H379        H  0.36875560  0.16754179  0.76956653     0.12010
H380        H  0.43735055  0.08827829  0.69880519     0.12010
H381        H  0.39603624  0.03446892  0.71832599     0.12010
H382        H  0.33054530  0.11314411  0.79211320     0.12010
C383        C  0.11082898  0.36006888  0.77696088    -0.14130
C384        C  0.07898112  0.35983055  0.75261615     0.08020
C385        C  0.07255978  0.39106744  0.72783495    -0.14130
C386        C  0.10064309  0.41977128  0.72390845    -0.14130
C387        C  0.13495625  0.41695449  0.74482519     0.08020
C388        C  0.13865254  0.38835051  0.77307222    -0.14130
H389        H  0.11616901  0.33601979  0.79613321     0.12010
H390        H  0.04781214  0.39132735  0.70911060     0.12010
H391        H  0.09716631  0.44174031  0.70210227     0.12010
H392        H  0.16459303  0.38597236  0.79003029     0.12010
C393        C  0.22415933  0.31922457  0.62607572    -0.14130
C394        C  0.25495499  0.31543737  0.59999401     0.08020
C395        C  0.28869534  0.33637259  0.60760867    -0.14130
C396        C  0.29115171  0.36195422  0.63938702    -0.14130
C397        C  0.25816177  0.37088668  0.66089087     0.08020
C398        C  0.22543170  0.34748001  0.65585287    -0.14130
H399        H  0.19743244  0.30436164  0.62036014     0.12010
H400        H  0.31160059  0.33661789  0.58665255     0.12010
H401        H  0.31719217  0.37798861  0.64404701     0.12010
H402        H  0.19955405  0.35366875  0.67254709     0.12010
C403        C  0.22444459  0.12648004  0.86122241    -0.14130
C404        C  0.25287957  0.15523498  0.86294768     0.08020
C405        C  0.27032369  0.16655481  0.82806351    -0.14130
C406        C  0.26202367  0.14674256  0.79291436    -0.14130
C407        C  0.23607007  0.11546365  0.79213384     0.08020
C408        C  0.21575140  0.10743472  0.82639695    -0.14130
H409        H  0.20912679  0.11801825  0.88711472     0.12010
H410        H  0.29146188  0.18948297  0.82820772     0.12010
H411        H  0.27784263  0.15410440  0.76699074     0.12010
H412        H  0.19490786  0.08425176  0.82708684     0.12010
C413        C  0.08139403  0.24369223  0.87457770    -0.14130
C414        C  0.09254182  0.23505551  0.83584975     0.08020
C415        C  0.13062094  0.22444747  0.82794994    -0.14130
C416        C  0.15740014  0.22458540  0.85806410    -0.14130
C417        C  0.14649081  0.23572101  0.89633896     0.08020
C418        C  0.10807748  0.24443765  0.90435056    -0.14130
H419        H  0.05202335  0.25170234  0.88175029     0.12010
H420        H  0.14002071  0.21808109  0.79850555     0.12010
H421        H  0.18693198  0.21704366  0.85113955     0.12010
H422        H  0.09869838  0.25220146  0.93350945     0.12010
C423        C  0.37717080  0.30584205  0.56697021    -0.14130
C424        C  0.34911762  0.27871618  0.55582439     0.08020
C425        C  0.34213906  0.24687664  0.58000040    -0.14130
C426        C  0.36512716  0.23954009  0.61158918    -0.14130
C427        C  0.39416363  0.26524264  0.62176354     0.08020
C428        C  0.39866969  0.29972636  0.60084310    -0.14130
H429        H  0.38233075  0.33133153  0.54978783     0.12010
H430        H  0.31934982  0.22646277  0.57378634     0.12010
H431        H  0.36031616  0.21347504  0.62809024     0.12010
H432        H  0.41957225  0.32101489  0.60993608     0.12010
C433        C  0.40027123  0.12780748  0.54036172    -0.14130
C434        C  0.41018384  0.09739611  0.51439782     0.08020
C435        C  0.38544099  0.08864784  0.98341769    -0.14130
C436        C  0.35354230  0.11188081  0.97619321    -0.14130
C437        C  0.34533233  0.14432949  0.99988577     0.08020
C438        C  0.36798679  0.15138653  0.53290079    -0.14130
H439        H  0.41904646  0.13535340  0.56417093     0.12010
H440        H  0.39230763  0.06513987  0.96304898     0.12010
H441        H  0.33696101  0.10626908  0.95024206     0.12010
H442        H  0.36271424  0.17676946  0.55100740     0.12010
C443        C  0.11113293  0.40688269  0.94112728    -0.14130
C444        C  0.08347004  0.40921948  0.97104503     0.08020
C445        C  0.08922894  0.38690716  0.00427372    -0.14130
C446        C  0.12150401  0.36296910  0.00762540    -0.14130
C447        C  0.14943314  0.36074976  0.97805968     0.08020
C448        C  0.14397663  0.38308297  0.94471244    -0.14130
H449        H  0.10747496  0.42350727  0.91512041     0.12010
H450        H  0.06860869  0.38775733  0.02791336     0.12010
H451        H  0.12464677  0.34628798  0.53373861     0.12010
H452        H  0.16480944  0.38181062  0.92127646     0.12010
C453        C  0.11237600  0.48202494  0.85851216    -0.14130
C454        C  0.10893207  0.00821469  0.89009163     0.08020
C455        C  0.14222905  0.02711860  0.90338386    -0.14130
C456        C  0.17767832  0.02143890  0.88373961    -0.13910
C457        C  0.18039480  0.49616430  0.85108297     0.08020
C458        C  0.14739940  0.47586323  0.83973965    -0.14130
H459        H  0.08765833  0.46629734  0.84782109     0.12010
H460        H  0.14054413  0.04731227  0.92782975     0.12010
H461        H  0.20250150  0.03767193  0.89327062     0.12010
H462        H  0.14806872  0.45622741  0.81500978     0.12010
C463        C  0.30328500  0.50869375  0.56084930    -0.14130
C464        C  0.29926014  0.48272964  0.59164623     0.08020
C465        C  0.32584187  0.45215628  0.59444302    -0.14130
C466        C  0.35672340  0.44828930  0.56865988    -0.14130
C467        C  0.36295598  0.47608160  0.54018927     0.08020
C468        C  0.33526608  0.50567428  0.53553214    -0.14130
H469        H  0.28425209  0.03367314  0.55899366     0.12010
H470        H  0.32525925  0.43408777  0.61940935     0.12010
H471        H  0.37838647  0.42623902  0.57405975     0.12010
H472        H  0.34005493  0.52826343  0.51471024     0.12010
C473        C  0.01748432  0.38250715  0.60676947    -0.14130
C474        C  0.99330701  0.37871188  0.57483214     0.08020
C475        C  0.48183904  0.34090308  0.56287593    -0.14130
C476        C  0.49172093  0.30810556  0.58429373    -0.14130
C477        C  0.01297477  0.31256071  0.61822430     0.08020
C478        C  0.02746341  0.34975717  0.62793388    -0.14130
H479        H  0.02806675  0.41077065  0.61586924     0.12010
H480        H  0.46397937  0.33665423  0.53762094     0.12010
H481        H  0.48040559  0.27992911  0.57589403     0.12010
H482        H  0.04535916  0.35377787  0.65310780     0.12010
C483        C  0.48955736  0.15711472  0.89372654    -0.14130
C484        C  0.48144561  0.11771210  0.88610327     0.08020
C485        C  0.45952337  0.10796497  0.85338314    -0.14130
C486        C  0.44883351  0.13663442  0.82712068    -0.14130
C487        C  0.45826797  0.17581014  0.83378482     0.08020
C488        C  0.47785594  0.18579628  0.86799890    -0.14130
H489        H  0.00621081  0.16565796  0.91882994     0.12010
H490        H  0.45301618  0.07782898  0.84660601     0.12010
H491        H  0.43654660  0.12741777  0.80008937     0.12010
H492        H  0.98693631  0.21553169  0.87316958     0.12010
C493        C  0.15619053  0.10507241  0.62152993    -0.14050
C494        C  0.18032576  0.08875132  0.64009385    -0.15610
C495        C  0.10505885  0.15068398  0.62829132    -0.14050
C496        C  0.08902613  0.17193397  0.65177575    -0.15610
C497        C  0.15777430  0.16764132  0.54672526    -0.14050
C498        C  0.14231730  0.14698980  0.56973480    -0.15610
C499        C  0.07761569  0.07415614  0.56528138    -0.14050
C500        C  0.09906679  0.09536051  0.58327518    -0.15610
C501        C  0.42624528  0.42205245  0.89176607    -0.14050
C502        C  0.40260079  0.40345081  0.87454925    -0.15610
C503        C  0.34159851  0.32551630  0.89368022    -0.14050
C504        C  0.36023871  0.34848177  0.87594951    -0.15610
C505        C  0.34968913  0.39780576  0.83043594    -0.14050
C506        C  0.32338485  0.41273370  0.81385728    -0.15610
C507        C  0.40442617  0.35616641  0.82550399    -0.14050
C508        C  0.42596451  0.33572220  0.80732673    -0.15610
C509        C  0.37902277  0.87696422  0.35176405    -0.03270
C510        C  0.12530506  0.62431513  0.10070546    -0.03270
O511        O  0.46699791  0.97400442  0.40442234    -0.80920
O512        O  0.46473390  0.56434131  0.04277036    -0.80940
O513        O  0.41629170  0.96363221  0.49672240    -0.80950
O514        O  0.52388548  0.59466714  0.43504769    -0.80890
O515        O  0.42578461  0.99765059  0.04984135    -0.81010
O516        O  0.48235227  0.55243999  0.41143136    -0.80930
O517        O  0.46349293  0.57500230  0.98021364    -0.80920
O518        O  0.46497908  0.92560662  0.44558217    -0.80950
C519        C  0.45419243  0.94149402  0.41475313     1.08770
C520        C  0.44841401  0.57848628  0.01325312     1.08660
C521        C  0.40308763  0.98056326  0.52688057     1.08790
C522        C  0.49715935  0.58697048  0.41123038     1.08670
O523        O  0.04085946  0.50631838  0.38670073    -0.80920
O524        O  0.49321315  0.94862510  0.06075510    -0.80990
O525        O  0.02788015  0.93875299  0.49816335    -0.80930
O526        O  0.03821350  0.57206808  0.01117384    -0.80910
O527        O  0.53751501  0.52118000  0.04940885    -0.80960
O528        O  0.03921200  0.95135230  0.43813256    -0.80930
O529        O  0.06433309  0.52650104  0.44312989    -0.80890
O530        O  0.96232869  0.90626244  0.52188114    -0.80960
Co531      Co  0.00889146  0.00177010  0.43092985     1.51530
Co532      Co  0.48184492  0.00801580  0.04564829     1.51690
Co533      Co  0.47243140  0.95212792  0.49639151     1.51570
Co534      Co  0.51206698  0.54982398  0.46474908     1.51470
O535        O  0.48480270  0.00321754  0.48444827    -1.42850
C536        C  0.07000585  0.51531420  0.40711713     1.08700
C537        C  0.98126902  0.91310665  0.05240938     1.08790
C538        C  0.04875647  0.93468133  0.46885590     1.08730
C539        C  0.05024765  0.55443680  0.04065331     1.08700
O540        O  0.28404990  0.81993670  0.42559520    -0.80920
O541        O  0.20712482  0.72193828  0.42061618    -0.80940
O542        O  0.27682174  0.70834326  0.40447318    -0.80950
O543        O  0.18190317  0.80878743  0.50880273    -0.80890
O544        O  0.24833225  0.65854368  0.43187702    -0.81010
O545        O  0.21305590  0.83761939  0.46115094    -0.80930
O546        O  0.16825168  0.74988885  0.46123899    -0.80920
O547        O  0.32619474  0.77156633  0.43078832    -0.80950
C548        C  0.31578314  0.80396942  0.41688920     1.08770
C549        C  0.17510849  0.73633505  0.42765348     1.08660
C550        C  0.26161734  0.67387046  0.40120013     1.08790
C551        C  0.18320730  0.83440116  0.48254778     1.08670
O552        O  0.24894849  0.82732577  0.03415426    -0.80920
O553        O  0.28635195  0.68285817  0.49597252    -0.80990
O554        O  0.31260060  0.74877769  0.50866646    -0.80930
O555        O  0.17021822  0.73222008  0.03567866    -0.80910
O556        O  0.20254831  0.68717057  0.99893711    -0.80960
O557        O  0.31856092  0.81120419  0.00141475    -0.80930
O558        O  0.23866917  0.76672960  0.05166136    -0.80890
O559        O  0.33405684  0.69450475  0.45578496    -0.80960
Co560      Co  0.26532288  0.82117114  0.47918662     1.51530
Co561      Co  0.24494413  0.70703596  0.45973758     1.51690
Co562      Co  0.29379517  0.73240668  0.45788334     1.51570
Co563      Co  0.20639869  0.75602825  0.50491791     1.51470
O564        O  0.24839299  0.76523639  0.47100214    -1.42850
C565        C  0.24773069  0.80172338  0.06004351     1.08700
C566        C  0.32080441  0.67483455  0.48348507     1.08790
C567        C  0.32633710  0.78045736  0.51970909     1.08730
C568        C  0.17727285  0.69699022  0.02575758     1.08700
O569        O  0.44158288  0.80308927  0.25106839    -0.80920
O570        O  0.02027998  0.79340844  0.18178820    -0.80940
O571        O  0.02654006  0.81433423  0.25497186    -0.80950
O572        O  0.43687322  0.72097318  0.15056869    -0.80890
O573        O  0.08171184  0.79555065  0.22933756    -0.81010
O574        O  0.42186843  0.77440980  0.18355074    -0.80930
O575        O  0.51028663  0.74528252  0.13942263    -0.80920
O576        O  0.46918666  0.78415095  0.30246950    -0.80950
C577        C  0.44738032  0.80757786  0.28620459     1.08770
C578        C  0.01480580  0.78164567  0.14753617     1.08660
C579        C  0.06141926  0.82211203  0.24524260     1.08790
C580        C  0.41998858  0.75382688  0.15306875     1.08670
O581        O  0.40973572  0.69861579  0.21654178    -0.80920
O582        O  0.06569397  0.73125777  0.26945645    -0.80990
O583        O  0.49545055  0.70775225  0.28925546    -0.80930
O584        O  0.03505150  0.68010812  0.19064013    -0.80910
O585        O  0.07092014  0.73048357  0.18451002    -0.80960
O586        O  0.43360096  0.72267921  0.28747123    -0.80930
O587        O  0.46093544  0.66232192  0.20426674    -0.80890
O588        O  0.03899702  0.76826308  0.31439373    -0.80960
Co589      Co  0.42985782  0.74993736  0.23429440     1.51530
Co590      Co  0.03946253  0.76169611  0.22347107     1.51690
Co591      Co  0.00982253  0.75847505  0.27028990     1.51570
Co592      Co  0.48655815  0.70351888  0.17393852     1.51470
O593        O  0.48557540  0.73937644  0.22128180    -1.42850
C594        C  0.42673948  0.66590491  0.21676643     1.08700
C595        C  0.06527546  0.74487512  0.30497481     1.08790
C596        C  0.46170671  0.70261267  0.30104003     1.08730
C597        C  0.06510683  0.69481857  0.17785255     1.08700
O598        O  0.29347219  0.96737179  0.28784394    -0.80920
O599        O  0.24101840  0.99406207  0.12970907    -0.80940
O600        O  0.27572378  0.92265514  0.20543069    -0.80950
O601        O  0.32205098  0.52178401  0.22680683    -0.80890
O602        O  0.22330534  0.92869490  0.16984859    -0.81010
O603        O  0.29986275  0.54493051  0.28068484    -0.80930
O604        O  0.29772177  0.50427128  0.15590455    -0.80920
O605        O  0.26405413  0.91039948  0.28293750    -0.80950
C606        C  0.29202684  0.93065438  0.29461105     1.08770
C607        C  0.27769623  0.49399829  0.12737537     1.08660
C608        C  0.25325206  0.90971232  0.17929586     1.08790
C609        C  0.32742364  0.54210888  0.25662542     1.08670
O610        O  0.21848694  0.55426420  0.26614995    -0.80920
O611        O  0.16790687  0.97110244  0.21767700    -0.80990
O612        O  0.21360212  0.97124422  0.29469088    -0.80930
O613        O  0.24027434  0.56476700  0.15982384    -0.80910
O614        O  0.18735366  0.53758081  0.18096150    -0.80960
O615        O  0.24376330  0.01553913  0.33004277    -0.80930
O616        O  0.26332476  0.58479923  0.23449730    -0.80890
O617        O  0.20165726  0.92191166  0.23826483    -0.80960
Co618      Co  0.25304907  0.51024129  0.27510020     1.51530
Co619      Co  0.20677311  0.98428756  0.17743747     1.51690
Co620      Co  0.24937491  0.95062688  0.24924218     1.51570
Co621      Co  0.27964632  0.54136805  0.19539256     1.51470
O622        O  0.24686552  0.99853326  0.21784216    -1.42850
C623        C  0.23687575  0.58510607  0.26050774     1.08700
C624        C  0.16951679  0.93820951  0.23339584     1.08790
C625        C  0.21498839  0.99356358  0.32527116     1.08730
C626        C  0.20392304  0.56352469  0.16222121     1.08700
C627        C  0.37537842  0.63850036  0.25854349    -0.14130
C628        C  0.40532072  0.63221601  0.23143996     0.08020
C629        C  0.41411500  0.59399893  0.21918694    -0.14130
C630        C  0.39092866  0.56318958  0.23092288    -0.14130
C631        C  0.35946870  0.56997695  0.25612960     0.08020
C632        C  0.35371360  0.60742376  0.27184485    -0.14130
H633        H  0.36876286  0.66754203  0.26957273     0.12010
H634        H  0.43734944  0.58827790  0.19880377     0.12010
H635        H  0.39603517  0.53446956  0.21832677     0.12010
H636        H  0.33055216  0.61314523  0.29212110     0.12010
C637        C  0.11082463  0.86007199  0.27695989    -0.14130
C638        C  0.07897613  0.85983363  0.25261608     0.08020
C639        C  0.07255429  0.89107028  0.22783466    -0.14130
C640        C  0.10063796  0.91977358  0.22390669    -0.14130
C641        C  0.13495187  0.91695630  0.24482210     0.08020
C642        C  0.13864868  0.88835271  0.27306943    -0.14130
H643        H  0.11616498  0.83602313  0.29613243     0.12010
H644        H  0.04780607  0.89133022  0.20911111     0.12010
H645        H  0.09716080  0.94174239  0.20210035     0.12010
H646        H  0.16458978  0.88597424  0.29002652     0.12010
C647        C  0.22414876  0.81922722  0.12606877    -0.14130
C648        C  0.25495005  0.81543143  0.09999501     0.08020
C649        C  0.28869280  0.83636051  0.10761615    -0.14130
C650        C  0.29114606  0.86194560  0.13939221    -0.14130
C651        C  0.25815206  0.87088673  0.16088628     0.08020
C652        C  0.22541902  0.84748548  0.15584306    -0.14130
H653        H  0.19742034  0.80436898  0.12034806     0.12010
H654        H  0.31160328  0.83659895  0.08666603     0.12010
H655        H  0.31718851  0.87797641  0.14405701     0.12010
H656        H  0.19953853  0.85368032  0.17253067     0.12010
C657        C  0.22442919  0.62648984  0.36121493    -0.14130
C658        C  0.25287228  0.65523627  0.36294453     0.08020
C659        C  0.27032514  0.66655137  0.32806329    -0.14130
C660        C  0.26202625  0.64674088  0.29291322    -0.14130
C661        C  0.23606571  0.61546805  0.29212911     0.08020
C662        C  0.21573776  0.60744562  0.32638834    -0.14130
H663        H  0.20910456  0.61803313  0.38710493     0.12010
H664        H  0.29146973  0.68947350  0.32821091     0.12010
H665        H  0.27785195  0.65409804  0.26699233     0.12010
H666        H  0.19488892  0.58426732  0.32707494     0.12010
C667        C  0.08139079  0.74369995  0.37457899    -0.14130
C668        C  0.09253774  0.73505947  0.33585154     0.08020
C669        C  0.13061549  0.72444608  0.32795227    -0.14130
C670        C  0.15739457  0.72458239  0.35806635    -0.14130
C671        C  0.14648647  0.73572143  0.39634062     0.08020
C672        C  0.10807423  0.74444356  0.40435184    -0.14130
H673        H  0.05202097  0.75171388  0.38175120     0.12010
H674        H  0.14001449  0.71807643  0.29850827     0.12010
H675        H  0.18692548  0.71703652  0.35114210     0.12010
H676        H  0.09869605  0.75221026  0.43351032     0.12010
C677        C  0.37717249  0.80583521  0.06696498    -0.14130
C678        C  0.34911844  0.77870958  0.05582099     0.08020
C679        C  0.34213911  0.74687166  0.07999883    -0.14130
C680        C  0.36512734  0.73953613  0.11158777    -0.14130
C681        C  0.39416444  0.76523854  0.12176058     0.08020
C682        C  0.39867129  0.79972088  0.10083815    -0.14130
H683        H  0.38233274  0.83132376  0.04978135     0.12010
H684        H  0.31934878  0.72645856  0.07378636     0.12010
H685        H  0.36031571  0.71347222  0.12809041     0.12010
H686        H  0.41957399  0.82100959  0.10993022     0.12010
C687        C  0.40026666  0.62780478  0.04036369    -0.14130
C688        C  0.41018206  0.59739346  0.01440089     0.08020
C689        C  0.38544049  0.58864265  0.48342027    -0.14130
C690        C  0.35354138  0.61187440  0.47619323    -0.14130
C691        C  0.34532885  0.64432338  0.49988460     0.08020
C692        C  0.36798117  0.65138173  0.03290092    -0.14130
H693        H  0.41904058  0.63535253  0.06417341     0.12010
H694        H  0.39230930  0.56513459  0.46305237     0.12010
H695        H  0.33696177  0.60626144  0.45024124     0.12010
H696        H  0.36270642  0.67676444  0.05100701     0.12010
C697        C  0.11112952  0.90687661  0.44112639    -0.14130
C698        C  0.08346686  0.90921436  0.47104439     0.08020
C699        C  0.08922706  0.88690408  0.50427430    -0.14130
C700        C  0.12150291  0.86296704  0.50762686    -0.14130
C701        C  0.14943168  0.86074659  0.47806081     0.08020
C702        C  0.14397395  0.88307786  0.44471239    -0.14130
H703        H  0.10747082  0.92349970  0.41511860     0.12010
H704        H  0.06860720  0.88775510  0.52791428     0.12010
H705        H  0.12464648  0.84628742  0.03374093     0.12010
H706        H  0.16480636  0.88180464  0.42127607     0.12010
C707        C  0.11237289  0.98202040  0.35850674    -0.14130
C708        C  0.10893464  0.50822256  0.39009435     0.08020
C709        C  0.14223083  0.52712963  0.40338388    -0.14130
C710        C  0.17767993  0.52144930  0.38373967    -0.13910
C711        C  0.18039251  0.99615788  0.35107987     0.08020
C712        C  0.14739627  0.97585964  0.33973395    -0.14130
H713        H  0.08765475  0.96629508  0.34781343     0.12010
H714        H  0.14054533  0.54732613  0.42782745     0.12010
H715        H  0.20250246  0.53768477  0.39326831     0.12010
H716        H  0.14806490  0.95622712  0.31500170     0.12010
C717        C  0.30329076  0.00871863  0.06085495    -0.14130
C718        C  0.29925041  0.98273894  0.09163644     0.08020
C719        C  0.32581617  0.95214936  0.09441725    -0.14130
C720        C  0.35670034  0.94828347  0.06863616    -0.14130
C721        C  0.36294863  0.97608955  0.04018212     0.08020
C722        C  0.33527217  0.00569754  0.03553900    -0.14130
H723        H  0.28423416  0.53363750  0.05897575     0.12010
H724        H  0.32521843  0.93406304  0.11937001     0.12010
H725        H  0.37835263  0.92621943  0.07402526     0.12010
H726        H  0.34007252  0.02829583  0.01472992     0.12010
C727        C  0.01747937  0.88250689  0.10676982    -0.14130
C728        C  0.99330404  0.87870994  0.07483119     0.08020
C729        C  0.48183984  0.84090030  0.06287371    -0.14130
C730        C  0.49172295  0.80810336  0.08429183    -0.14130
C731        C  0.01297431  0.81256005  0.11822380     0.08020
C732        C  0.02745978  0.84975755  0.12793443    -0.14130
H733        H  0.02805907  0.91077119  0.11587055     0.12010
H734        H  0.46398206  0.83665024  0.03761754     0.12010
H735        H  0.48041019  0.77992607  0.07589126     0.12010
H736        H  0.04535380  0.85377955  0.15310941     0.12010
C737        C  0.48955231  0.65711995  0.39372962    -0.14130
C738        C  0.48144678  0.61771616  0.38610530     0.08020
C739        C  0.45953054  0.60796570  0.35338203    -0.14130
C740        C  0.44884020  0.63663339  0.32711812    -0.14130
C741        C  0.45826726  0.67581072  0.33378394     0.08020
C742        C  0.47784989  0.68579988  0.36800045    -0.14130
H743        H  0.00620152  0.66566547  0.41883522     0.12010
H744        H  0.45302888  0.57782866  0.34660372     0.12010
H745        H  0.43655925  0.62741452  0.30008466     0.12010
H746        H  0.98692560  0.71553666  0.37317216     0.12010
C747        C  0.15619317  0.60507216  0.12153413    -0.14050
C748        C  0.18032890  0.58874995  0.14009638    -0.15610
C749        C  0.10506210  0.65068477  0.12829710    -0.14050
C750        C  0.08902902  0.67193532  0.15178069    -0.15610
C751        C  0.15777348  0.66763968  0.04672799    -0.14050
C752        C  0.14231825  0.64698929  0.06973948    -0.15610
C753        C  0.07761701  0.57415876  0.06528617    -0.14050
C754        C  0.09906818  0.59536166  0.08328128    -0.15610
C755        C  0.42623871  0.92204834  0.39176534    -0.14050
C756        C  0.40259383  0.90344727  0.37454828    -0.15610
C757        C  0.34159447  0.82551017  0.39367770    -0.14050
C758        C  0.36023355  0.84847660  0.37594706    -0.15610
C759        C  0.34968255  0.89780087  0.33043378    -0.14050
C760        C  0.32337900  0.91272794  0.31385319    -0.15610
C761        C  0.40442077  0.85616412  0.32550211    -0.14050
C762        C  0.42595975  0.83572119  0.30732440    -0.15610
C763        C  0.37902277  0.87696421  0.85176405    -0.03270
C764        C  0.12530506  0.62431513  0.60070546    -0.03270
O765        O  0.46699791  0.97400442  0.90442233    -0.80920
O766        O  0.46473390  0.56434131  0.54277036    -0.80940
O767        O  0.41629170  0.96363221  0.99672240    -0.80950
O768        O  0.52388548  0.59466714  0.93504769    -0.80890
O769        O  0.42578461  0.99765059  0.54984135    -0.81010
O770        O  0.48235227  0.55243999  0.91143136    -0.80930
O771        O  0.46349294  0.57500230  0.48021364    -0.80920
O772        O  0.46497907  0.92560662  0.94558217    -0.80950
C773        C  0.45419242  0.94149402  0.91475312     1.08770
C774        C  0.44841401  0.57848628  0.51325312     1.08660
C775        C  0.40308763  0.98056326  0.02688057     1.08790
C776        C  0.49715935  0.58697048  0.91123038     1.08670
O777        O  0.04085945  0.50631838  0.88670073    -0.80920
O778        O  0.49321315  0.94862510  0.56075511    -0.80990
O779        O  0.02788014  0.93875299  0.99816334    -0.80930
O780        O  0.03821350  0.57206808  0.51117384    -0.80910
O781        O  0.53751502  0.52118000  0.54940885    -0.80960
O782        O  0.03921200  0.95135229  0.93813256    -0.80930
O783        O  0.06433309  0.52650104  0.94312989    -0.80890
O784        O  0.96232869  0.90626244  0.02188114    -0.80960
Co785      Co  0.00889145  0.00177009  0.93092985     1.51530
Co786      Co  0.48184492  0.00801580  0.54564830     1.51690
Co787      Co  0.47243139  0.95212792  0.99639150     1.51570
Co788      Co  0.51206697  0.54982398  0.96474908     1.51470
O789        O  0.48480270  0.00321753  0.98444826    -1.42850
C790        C  0.07000585  0.51531421  0.90711713     1.08700
C791        C  0.98126903  0.91310665  0.55240938     1.08790
C792        C  0.04875646  0.93468132  0.96885589     1.08730
C793        C  0.05024765  0.55443680  0.54065331     1.08700
O794        O  0.28404989  0.81993669  0.92559520    -0.80920
O795        O  0.20712482  0.72193828  0.92061618    -0.80940
O796        O  0.27682173  0.70834326  0.90447318    -0.80950
O797        O  0.18190317  0.80878743  0.00880273    -0.80890
O798        O  0.24833224  0.65854367  0.93187703    -0.81010
O799        O  0.21305589  0.83761939  0.96115094    -0.80930
O800        O  0.16825167  0.74988885  0.96123899    -0.80920
O801        O  0.32619474  0.77156633  0.93078833    -0.80950
C802        C  0.31578314  0.80396941  0.91688920     1.08770
C803        C  0.17510849  0.73633505  0.92765348     1.08660
C804        C  0.26161734  0.67387046  0.90120013     1.08790
C805        C  0.18320730  0.83440115  0.98254778     1.08670
O806        O  0.24894849  0.82732577  0.53415426    -0.80920
O807        O  0.28635194  0.68285817  0.99597252    -0.80990
O808        O  0.31260060  0.74877769  0.00866647    -0.80930
O809        O  0.17021822  0.73222008  0.53567866    -0.80910
O810        O  0.20254832  0.68717057  0.49893711    -0.80960
O811        O  0.31856092  0.81120419  0.50141475    -0.80930
O812        O  0.23866917  0.76672960  0.55166136    -0.80890
O813        O  0.33405684  0.69450474  0.95578496    -0.80960
Co814      Co  0.26532288  0.82117114  0.97918663     1.51530
Co815      Co  0.24494413  0.70703596  0.95973758     1.51690
Co816      Co  0.29379516  0.73240668  0.95788335     1.51570
Co817      Co  0.20639869  0.75602825  0.00491791     1.51470
O818        O  0.24839299  0.76523639  0.97100215    -1.42850
C819        C  0.24773069  0.80172338  0.56004351     1.08700
C820        C  0.32080441  0.67483455  0.98348507     1.08790
C821        C  0.32633710  0.78045736  0.01970910     1.08730
C822        C  0.17727285  0.69699022  0.52575758     1.08700
O823        O  0.44158288  0.80308927  0.75106839    -0.80920
O824        O  0.02027999  0.79340843  0.68178820    -0.80940
O825        O  0.02654006  0.81433422  0.75497186    -0.80950
O826        O  0.43687322  0.72097318  0.65056869    -0.80890
O827        O  0.08171184  0.79555065  0.72933756    -0.81010
O828        O  0.42186843  0.77440980  0.68355074    -0.80930
O829        O  0.51028663  0.74528252  0.63942263    -0.80920
O830        O  0.46918666  0.78415095  0.80246950    -0.80950
C831        C  0.44738032  0.80757786  0.78620459     1.08770
C832        C  0.01480581  0.78164567  0.64753617     1.08660
C833        C  0.06141926  0.82211203  0.74524260     1.08790
C834        C  0.41998858  0.75382687  0.65306874     1.08670
O835        O  0.40973572  0.69861579  0.71654178    -0.80920
O836        O  0.06569397  0.73125777  0.76945645    -0.80990
O837        O  0.49545055  0.70775225  0.78925546    -0.80930
O838        O  0.03505150  0.68010812  0.69064013    -0.80910
O839        O  0.07092014  0.73048356  0.68451002    -0.80960
O840        O  0.43360096  0.72267921  0.78747123    -0.80930
O841        O  0.46093544  0.66232192  0.70426674    -0.80890
O842        O  0.03899702  0.76826308  0.81439373    -0.80960
Co843      Co  0.42985782  0.74993735  0.73429440     1.51530
Co844      Co  0.03946253  0.76169611  0.72347107     1.51690
Co845      Co  0.00982253  0.75847505  0.77028990     1.51570
Co846      Co  0.48655815  0.70351888  0.67393852     1.51470
O847        O  0.48557540  0.73937643  0.72128180    -1.42850
C848        C  0.42673948  0.66590491  0.71676642     1.08700
C849        C  0.06527546  0.74487512  0.80497481     1.08790
C850        C  0.46170671  0.70261266  0.80104003     1.08730
C851        C  0.06510683  0.69481856  0.67785255     1.08700
O852        O  0.29347219  0.96737177  0.78784394    -0.80920
O853        O  0.24101840  0.99406207  0.62970907    -0.80940
O854        O  0.27572378  0.92265514  0.70543068    -0.80950
O855        O  0.32205098  0.52178401  0.72680683    -0.80890
O856        O  0.22330534  0.92869490  0.66984858    -0.81010
O857        O  0.29986275  0.54493051  0.78068484    -0.80930
O858        O  0.29772177  0.50427128  0.65590455    -0.80920
O859        O  0.26405413  0.91039947  0.78293750    -0.80950
C860        C  0.29202684  0.93065437  0.79461105     1.08770
C861        C  0.27769623  0.49399829  0.62737538     1.08660
C862        C  0.25325206  0.90971232  0.67929586     1.08790
C863        C  0.32742364  0.54210888  0.75662542     1.08670
O864        O  0.21848694  0.55426420  0.76614995    -0.80920
O865        O  0.16790687  0.97110244  0.71767699    -0.80990
O866        O  0.21360212  0.97124421  0.79469088    -0.80930
O867        O  0.24027435  0.56476700  0.65982384    -0.80910
O868        O  0.18735366  0.53758081  0.68096150    -0.80960
O869        O  0.24376330  0.01553912  0.83004277    -0.80930
O870        O  0.26332476  0.58479923  0.73449730    -0.80890
O871        O  0.20165726  0.92191165  0.73826482    -0.80960
Co872      Co  0.25304907  0.51024129  0.77510020     1.51530
Co873      Co  0.20677311  0.98428756  0.67743747     1.51690
Co874      Co  0.24937491  0.95062687  0.74924218     1.51570
Co875      Co  0.27964632  0.54136805  0.69539256     1.51470
O876        O  0.24686552  0.99853326  0.71784215    -1.42850
C877        C  0.23687575  0.58510607  0.76050774     1.08700
C878        C  0.16951679  0.93820951  0.73339583     1.08790
C879        C  0.21498838  0.99356357  0.82527116     1.08730
C880        C  0.20392305  0.56352469  0.66222121     1.08700
C881        C  0.37537842  0.63850036  0.75854349    -0.14130
C882        C  0.40532072  0.63221601  0.73143996     0.08020
C883        C  0.41411500  0.59399893  0.71918694    -0.14130
C884        C  0.39092866  0.56318958  0.73092288    -0.14130
C885        C  0.35946870  0.56997695  0.75612960     0.08020
C886        C  0.35371360  0.60742376  0.77184485    -0.14130
H887        H  0.36876286  0.66754203  0.76957273     0.12010
H888        H  0.43734944  0.58827790  0.69880377     0.12010
H889        H  0.39603517  0.53446956  0.71832677     0.12010
H890        H  0.33055217  0.61314523  0.79212110     0.12010
C891        C  0.11082463  0.86007199  0.77695989    -0.14130
C892        C  0.07897613  0.85983363  0.75261607     0.08020
C893        C  0.07255429  0.89107028  0.72783466    -0.14130
C894        C  0.10063796  0.91977357  0.72390668    -0.14130
C895        C  0.13495187  0.91695630  0.74482209     0.08020
C896        C  0.13864868  0.88835271  0.77306943    -0.14130
H897        H  0.11616498  0.83602313  0.79613243     0.12010
H898        H  0.04780606  0.89133021  0.70911110     0.12010
H899        H  0.09716080  0.94174239  0.70210035     0.12010
H900        H  0.16458978  0.88597424  0.79002651     0.12010
C901        C  0.22414876  0.81922722  0.62606876    -0.14130
C902        C  0.25495005  0.81543143  0.59999501     0.08020
C903        C  0.28869281  0.83636051  0.60761615    -0.14130
C904        C  0.29114606  0.86194559  0.63939220    -0.14130
C905        C  0.25815206  0.87088673  0.66088627     0.08020
C906        C  0.22541902  0.84748548  0.65584306    -0.14130
H907        H  0.19742034  0.80436898  0.62034806     0.12010
H908        H  0.31160329  0.83659895  0.58666603     0.12010
H909        H  0.31718851  0.87797640  0.64405701     0.12010
H910        H  0.19953853  0.85368032  0.67253066     0.12010
C911        C  0.22442919  0.62648984  0.86121493    -0.14130
C912        C  0.25287228  0.65523627  0.86294453     0.08020
C913        C  0.27032514  0.66655137  0.82806329    -0.14130
C914        C  0.26202625  0.64674088  0.79291322    -0.14130
C915        C  0.23606571  0.61546805  0.79212911     0.08020
C916        C  0.21573775  0.60744563  0.82638834    -0.14130
H917        H  0.20910456  0.61803313  0.88710493     0.12010
H918        H  0.29146973  0.68947349  0.82821091     0.12010
H919        H  0.27785195  0.65409804  0.76699233     0.12010
H920        H  0.19488892  0.58426732  0.82707494     0.12010
C921        C  0.08139079  0.74369995  0.87457899    -0.14130
C922        C  0.09253774  0.73505946  0.83585154     0.08020
C923        C  0.13061549  0.72444608  0.82795227    -0.14130
C924        C  0.15739457  0.72458239  0.85806635    -0.14130
C925        C  0.14648647  0.73572143  0.89634062     0.08020
C926        C  0.10807422  0.74444356  0.90435184    -0.14130
H927        H  0.05202097  0.75171388  0.88175120     0.12010
H928        H  0.14001449  0.71807643  0.79850827     0.12010
H929        H  0.18692548  0.71703652  0.85114211     0.12010
H930        H  0.09869605  0.75221027  0.93351032     0.12010
C931        C  0.37717249  0.80583521  0.56696498    -0.14130
C932        C  0.34911844  0.77870958  0.55582099     0.08020
C933        C  0.34213911  0.74687166  0.57999882    -0.14130
C934        C  0.36512735  0.73953612  0.61158776    -0.14130
C935        C  0.39416444  0.76523854  0.62176057     0.08020
C936        C  0.39867129  0.79972088  0.60083815    -0.14130
H937        H  0.38233274  0.83132376  0.54978134     0.12010
H938        H  0.31934879  0.72645856  0.57378636     0.12010
H939        H  0.36031571  0.71347222  0.62809040     0.12010
H940        H  0.41957399  0.82100959  0.60993022     0.12010
C941        C  0.40026665  0.62780478  0.54036369    -0.14130
C942        C  0.41018206  0.59739346  0.51440088     0.08020
C943        C  0.38544048  0.58864264  0.98342027    -0.14130
C944        C  0.35354138  0.61187439  0.97619324    -0.14130
C945        C  0.34532884  0.64432338  0.99988461     0.08020
C946        C  0.36798116  0.65138172  0.53290092    -0.14130
H947        H  0.41904057  0.63535252  0.56417342     0.12010
H948        H  0.39230929  0.56513458  0.96305238     0.12010
H949        H  0.33696176  0.60626143  0.95024125     0.12010
H950        H  0.36270641  0.67676443  0.55100701     0.12010
C951        C  0.11112952  0.90687661  0.94112639    -0.14130
C952        C  0.08346686  0.90921435  0.97104438     0.08020
C953        C  0.08922705  0.88690407  0.00427429    -0.14130
C954        C  0.12150291  0.86296703  0.00762685    -0.14130
C955        C  0.14943167  0.86074659  0.97806081     0.08020
C956        C  0.14397395  0.88307786  0.94471239    -0.14130
H957        H  0.10747083  0.92349970  0.91511860     0.12010
H958        H  0.06860719  0.88775509  0.02791427     0.12010
H959        H  0.12464649  0.84628743  0.53374094     0.12010
H960        H  0.16480636  0.88180464  0.92127607     0.12010
C961        C  0.11237288  0.98202040  0.85850672    -0.14130
C962        C  0.10893464  0.50822256  0.89009435     0.08020
C963        C  0.14223083  0.52712963  0.90338388    -0.14130
C964        C  0.17767992  0.52144930  0.88373967    -0.13910
C965        C  0.18039251  0.99615787  0.85107987     0.08020
C966        C  0.14739626  0.97585965  0.83973394    -0.14130
H967        H  0.08765474  0.96629509  0.84781340     0.12010
H968        H  0.14054533  0.54732613  0.92782745     0.12010
H969        H  0.20250245  0.53768477  0.89326831     0.12010
H970        H  0.14806489  0.95622713  0.81500168     0.12010
C971        C  0.30329077  0.00871864  0.56085495    -0.14130
C972        C  0.29925041  0.98273895  0.59163643     0.08020
C973        C  0.32581616  0.95214936  0.59441724    -0.14130
C974        C  0.35670033  0.94828347  0.56863615    -0.14130
C975        C  0.36294863  0.97608955  0.54018212     0.08020
C976        C  0.33527217  0.00569755  0.53553901    -0.14130
H977        H  0.28423415  0.53363747  0.55897573     0.12010
H978        H  0.32521841  0.93406303  0.61936999     0.12010
H979        H  0.37835262  0.92621942  0.57402524     0.12010
H980        H  0.34007253  0.02829585  0.51472993     0.12010
C981        C  0.01747937  0.88250689  0.60676982    -0.14130
C982        C  0.99330405  0.87870994  0.57483119     0.08020
C983        C  0.48183984  0.84090030  0.56287371    -0.14130
C984        C  0.49172295  0.80810336  0.58429183    -0.14130
C985        C  0.01297431  0.81256005  0.61822380     0.08020
C986        C  0.02745978  0.84975755  0.62793443    -0.14130
H987        H  0.02805907  0.91077119  0.61587055     0.12010
H988        H  0.46398206  0.83665024  0.53761754     0.12010
H989        H  0.48041019  0.77992607  0.57589126     0.12010
H990        H  0.04535380  0.85377955  0.65310940     0.12010
C991        C  0.48955231  0.65711995  0.89372962    -0.14130
C992        C  0.48144678  0.61771616  0.88610530     0.08020
C993        C  0.45953053  0.60796569  0.85338203    -0.14130
C994        C  0.44884020  0.63663339  0.82711812    -0.14130
C995        C  0.45826726  0.67581072  0.83378394     0.08020
C996        C  0.47784989  0.68579988  0.86800045    -0.14130
H997        H  0.00620151  0.66566547  0.91883522     0.12010
H998        H  0.45302888  0.57782866  0.84660371     0.12010
H999        H  0.43655925  0.62741451  0.80008466     0.12010
H1000       H  0.98692560  0.71553666  0.87317216     0.12010
C1001       C  0.15619317  0.60507216  0.62153413    -0.14050
C1002       C  0.18032890  0.58874995  0.64009638    -0.15610
C1003       C  0.10506210  0.65068477  0.62829710    -0.14050
C1004       C  0.08902902  0.67193532  0.65178069    -0.15610
C1005       C  0.15777348  0.66763968  0.54672799    -0.14050
C1006       C  0.14231825  0.64698929  0.56973948    -0.15610
C1007       C  0.07761701  0.57415876  0.56528616    -0.14050
C1008       C  0.09906819  0.59536166  0.58328128    -0.15610
C1009       C  0.42623870  0.92204833  0.89176533    -0.14050
C1010       C  0.40259382  0.90344727  0.87454828    -0.15610
C1011       C  0.34159447  0.82551017  0.89367770    -0.14050
C1012       C  0.36023355  0.84847659  0.87594706    -0.15610
C1013       C  0.34968254  0.89780086  0.83043378    -0.14050
C1014       C  0.32337900  0.91272793  0.81385319    -0.15610
C1015       C  0.40442077  0.85616411  0.82550211    -0.14050
C1016       C  0.42595975  0.83572118  0.80732440    -0.15610
C1017       C  0.87902895  0.37696807  0.35176574    -0.03270
C1018       C  0.62530289  0.12431482  0.10069990    -0.03270
O1019       O  0.96700209  0.47400999  0.40442437    -0.80920
O1020       O  0.96473283  0.06433960  0.04276700    -0.80940
O1021       O  0.91629578  0.46363534  0.49672294    -0.80950
O1022       O  0.02388487  0.09466001  0.43504335    -0.80890
O1023       O  0.92578898  0.49765046  0.04984380    -0.81010
O1024       O  0.98234974  0.05243464  0.41142781    -0.80930
O1025       O  0.96349154  0.07499806  0.98020979    -0.80920
O1026       O  0.96498486  0.42561127  0.44558313    -0.80950
C1027       C  0.95419792  0.44149882  0.41475433     1.08770
C1028       C  0.94841372  0.07848490  0.01324955     1.08660
C1029       C  0.90309210  0.48056328  0.52688288     1.08790
C1030       C  0.99715789  0.08696470  0.41122670     1.08670
O1031       O  0.54085653  0.00631104  0.38669812    -0.80920
O1032       O  0.99321788  0.44862741  0.06075678    -0.80990
O1033       O  0.52788443  0.43875863  0.49816497    -0.80930
O1034       O  0.53821196  0.07206308  0.01116939    -0.80910
O1035       O  0.03751231  0.02117682  0.04940675    -0.80960
O1036       O  0.53921618  0.45135879  0.43813434    -0.80930
O1037       O  0.56433051  0.02649338  0.44312715    -0.80890
O1038       O  0.46233368  0.40626590  0.52188158    -0.80960
Co1039     Co  0.50889491  0.50177600  0.43093246     1.51530
Co1040     Co  0.98184824  0.50801805  0.04565064     1.51690
Co1041     Co  0.97243562  0.45213217  0.49639274     1.51570
Co1042     Co  0.01206490  0.04981799  0.46474556     1.51470
O1043       O  0.98480606  0.50322205  0.48445056    -1.42850
C1044       C  0.57000317  0.01530636  0.40711447     1.08700
C1045       C  0.48127350  0.41310924  0.05241032     1.08790
C1046       C  0.54876047  0.43468721  0.46885734     1.08730
C1047       C  0.55024580  0.05443299  0.04064965     1.08700
O1048       O  0.78405300  0.31994274  0.42559638    -0.80920
O1049       O  0.70712958  0.22194061  0.42061556    -0.80940
O1050       O  0.77682651  0.20834652  0.40447397    -0.80950
O1051       O  0.68190368  0.30878987  0.50880070    -0.80890
O1052       O  0.74833879  0.15854729  0.43187985    -0.81010
O1053       O  0.71305706  0.33762280  0.46114970    -0.80930
O1054       O  0.66825476  0.24989001  0.46123759    -0.80920
O1055       O  0.82619772  0.27157231  0.43078996    -0.80950
C1056       C  0.81578651  0.30397560  0.41689109     1.08770
C1057       C  0.67511259  0.23633622  0.42765220     1.08660
C1058       C  0.76162358  0.17387278  0.40120225     1.08790
C1059       C  0.68320826  0.33440398  0.48254612     1.08670
O1060       O  0.74894680  0.32733118  0.03415385    -0.80920
O1061       O  0.78635580  0.18286447  0.49597479    -0.80990
O1062       O  0.81260219  0.24878447  0.50866782    -0.80930
O1063       O  0.67022021  0.23222233  0.03567793    -0.80910
O1064       O  0.70255156  0.18717362  0.99893678    -0.80960
O1065       O  0.81856118  0.31121120  0.00141744    -0.80930
O1066       O  0.73866997  0.26673492  0.05166172    -0.80890
O1067       O  0.83406092  0.19451181  0.45578758    -0.80960
Co1068     Co  0.76532370  0.32117640  0.47918710     1.51530
Co1069     Co  0.74494825  0.20704023  0.45973857     1.51690
Co1070     Co  0.79379825  0.23241229  0.45788439     1.51570
Co1071     Co  0.70640071  0.25603150  0.50491747     1.51470
O1072       O  0.74839508  0.26524102  0.47100211    -1.42850
C1073       C  0.74773091  0.30172904  0.06004335     1.08700
C1074       C  0.82080848  0.17484151  0.48348759     1.08790
C1075       C  0.82633752  0.28046428  0.51971154     1.08730
C1076       C  0.67727513  0.19699257  0.02575659     1.08700
O1077       O  0.94158590  0.30308977  0.25107047    -0.80920
O1078       O  0.52028166  0.29340813  0.18178842    -0.80940
O1079       O  0.52654417  0.31433218  0.25497277    -0.80950
O1080       O  0.93687161  0.22097535  0.15057017    -0.80890
O1081       O  0.58171481  0.29554778  0.22933636    -0.81010
O1082       O  0.92186939  0.27441195  0.18355319    -0.80930
O1083       O  0.01028537  0.24528311  0.13942253    -0.80920
O1084       O  0.96919017  0.28415047  0.30247095    -0.80950
C1085       C  0.94738405  0.30757807  0.28620657     1.08770
C1086       C  0.51480602  0.28164599  0.14753640     1.08660
C1087       C  0.56142332  0.32210932  0.24524259     1.08790
C1088       C  0.91998807  0.25382957  0.15307101     1.08670
O1089       O  0.90973518  0.19861724  0.21654354    -0.80920
O1090       O  0.56569624  0.23125499  0.26945504    -0.80990
O1091       O  0.99545151  0.20775079  0.28925567    -0.80930
O1092       O  0.53505017  0.18010699  0.19063770    -0.80910
O1093       O  0.57092005  0.23048161  0.18450797    -0.80960
O1094       O  0.93360230  0.22267951  0.28747258    -0.80930
O1095       O  0.96093377  0.16232236  0.20426628    -0.80890
O1096       O  0.53900061  0.26825959  0.31439377    -0.80960
Co1097     Co  0.92985914  0.24993833  0.23429620     1.51530
Co1098     Co  0.53946433  0.26169450  0.22347048     1.51690
Co1099     Co  0.50982489  0.25847333  0.27029041     1.51570
Co1100     Co  0.98655681  0.20351941  0.17393829     1.51470
O1101       O  0.98557639  0.23937617  0.22128236    -1.42850
C1102       C  0.92673793  0.16590568  0.21676631     1.08700
C1103       C  0.56527873  0.24487165  0.30497371     1.08790
C1104       C  0.96170767  0.20261204  0.30104077     1.08730
C1105       C  0.56510544  0.19481700  0.17784939     1.08700
O1106       O  0.79347507  0.46737662  0.28784906    -0.80920
O1107       O  0.74102432  0.49405862  0.12971239    -0.80940
O1108       O  0.77572886  0.42265539  0.20543756    -0.80950
O1109       O  0.82204922  0.02178255  0.22680194    -0.80890
O1110       O  0.72331109  0.42869229  0.16985396    -0.81010
O1111       O  0.79986242  0.04492564  0.28068221    -0.80930
O1112       O  0.79771771  0.00427304  0.15589807    -0.80920
O1113       O  0.76405855  0.41040323  0.28294490    -0.80950
C1114       C  0.79203110  0.43065925  0.29461691     1.08770
C1115       C  0.77769014  0.99400212  0.12736950     1.08660
C1116       C  0.75325854  0.40971134  0.17930199     1.08790
C1117       C  0.82742243  0.04210600  0.25662146     1.08670
O1118       O  0.71848679  0.05426286  0.26614963    -0.80920
O1119       O  0.66791080  0.47110055  0.21767954    -0.80990
O1120       O  0.71360495  0.47124738  0.29469552    -0.80930
O1121       O  0.74027118  0.06476957  0.15982289    -0.80910
O1122       O  0.68735057  0.03758382  0.18096117    -0.80960
O1123       O  0.74376484  0.51554532  0.33004508    -0.80930
O1124       O  0.76332448  0.08479842  0.23449736    -0.80890
O1125       O  0.70166190  0.42191175  0.23827084    -0.80960
Co1126     Co  0.75304740  0.01023812  0.27509728     1.51530
Co1127     Co  0.70677758  0.48428499  0.17744030     1.51690
Co1128     Co  0.74937860  0.45062863  0.24924777     1.51570
Co1129     Co  0.77964387  0.04136842  0.19538955     1.51470
O1130       O  0.74686831  0.49853343  0.21784571    -1.42850
C1131       C  0.73687685  0.08510440  0.26050934     1.08700
C1132       C  0.66952114  0.43820846  0.23340006     1.08790
C1133       C  0.71499056  0.49356879  0.32527448     1.08730
C1134       C  0.70391986  0.06352728  0.16222022     1.08700
C1135       C  0.87537309  0.13850014  0.25853845    -0.14130
C1136       C  0.90531811  0.13221627  0.23143790     0.08020
C1137       C  0.91411423  0.09399909  0.21918622    -0.14130
C1138       C  0.89092787  0.06318911  0.23092094    -0.14130
C1139       C  0.85946621  0.06997579  0.25612560     0.08020
C1140       C  0.85370839  0.10742301  0.27183891    -0.14130
H1141       H  0.86875562  0.16754179  0.26956656     0.12010
H1142       H  0.93735054  0.08827830  0.19880518     0.12010
H1143       H  0.89603622  0.03446893  0.21832598     0.12010
H1144       H  0.83054531  0.11314411  0.29211322     0.12010
C1145       C  0.61082898  0.36006889  0.27696088    -0.14130
C1146       C  0.57898112  0.35983055  0.25261615     0.08020
C1147       C  0.57255978  0.39106744  0.22783494    -0.14130
C1148       C  0.60064309  0.41977128  0.22390845    -0.14130
C1149       C  0.63495625  0.41695450  0.24482519     0.08020
C1150       C  0.63865254  0.38835051  0.27307222    -0.14130
H1151       H  0.61616901  0.33601979  0.29613321     0.12010
H1152       H  0.54781214  0.39132735  0.20911060     0.12010
H1153       H  0.59716632  0.44174031  0.20210227     0.12010
H1154       H  0.66459303  0.38597236  0.29003029     0.12010
C1155       C  0.72415933  0.31922457  0.12607572    -0.14130
C1156       C  0.75495498  0.31543736  0.09999401     0.08020
C1157       C  0.78869534  0.33637258  0.10760868    -0.14130
C1158       C  0.79115171  0.36195422  0.13938702    -0.14130
C1159       C  0.75816176  0.37088668  0.16089087     0.08020
C1160       C  0.72543169  0.34748002  0.15585286    -0.14130
H1161       H  0.69743243  0.30436165  0.12036013     0.12010
H1162       H  0.81160059  0.33661788  0.08665256     0.12010
H1163       H  0.81719217  0.37798860  0.14404702     0.12010
H1164       H  0.69955404  0.35366876  0.17254708     0.12010
C1165       C  0.72444456  0.12648006  0.36122239    -0.14130
C1166       C  0.75287955  0.15523498  0.36294767     0.08020
C1167       C  0.77032369  0.16655480  0.32806350    -0.14130
C1168       C  0.76202367  0.14674256  0.29291435    -0.14130
C1169       C  0.73607006  0.11546366  0.29213383     0.08020
C1170       C  0.71575137  0.10743475  0.32639693    -0.14130
H1171       H  0.70912674  0.11801829  0.38711469     0.12010
H1172       H  0.79146190  0.18948295  0.32820772     0.12010
H1173       H  0.77784264  0.15410439  0.26699074     0.12010
H1174       H  0.69490782  0.08425179  0.32708681     0.12010
C1175       C  0.58139403  0.24369221  0.37457770    -0.14130
C1176       C  0.59254182  0.23505551  0.33584975     0.08020
C1177       C  0.63062094  0.22444748  0.32794994    -0.14130
C1178       C  0.65740015  0.22458542  0.35806409    -0.14130
C1179       C  0.64649080  0.23572101  0.39633896     0.08020
C1180       C  0.60807747  0.24443763  0.40435056    -0.14130
H1181       H  0.55202334  0.25170230  0.38175029     0.12010
H1182       H  0.64002072  0.21808112  0.29850555     0.12010
H1183       H  0.68693199  0.21704369  0.35113954     0.12010
H1184       H  0.59869837  0.25220142  0.43350945     0.12010
C1185       C  0.87717080  0.30584205  0.06697021    -0.14130
C1186       C  0.84911763  0.27871618  0.05582439     0.08020
C1187       C  0.84213906  0.24687665  0.08000041    -0.14130
C1188       C  0.86512716  0.23954010  0.11158919    -0.14130
C1189       C  0.89416362  0.26524264  0.12176355     0.08020
C1190       C  0.89866969  0.29972636  0.10084310    -0.14130
H1191       H  0.88233076  0.33133153  0.04978783     0.12010
H1192       H  0.81934981  0.22646277  0.07378636     0.12010
H1193       H  0.86031615  0.21347506  0.12809026     0.12010
H1194       H  0.91957225  0.32101489  0.10993608     0.12010
C1195       C  0.90027127  0.12780751  0.04036171    -0.14130
C1196       C  0.91018384  0.09739611  0.01439783     0.08020
C1197       C  0.88544099  0.08864783  0.48341768    -0.14130
C1198       C  0.85354230  0.11188079  0.47619320    -0.14130
C1199       C  0.84533232  0.14432948  0.49988576     0.08020
C1200       C  0.86798683  0.15138656  0.03290079    -0.14130
H1201       H  0.91904652  0.13535345  0.06417090     0.12010
H1202       H  0.89230764  0.06513986  0.46304898     0.12010
H1203       H  0.83696102  0.10626907  0.45024205     0.12010
H1204       H  0.86271431  0.17676952  0.05100737     0.12010
C1205       C  0.61113293  0.40688268  0.44112728    -0.14130
C1206       C  0.58347005  0.40921948  0.47104503     0.08020
C1207       C  0.58922896  0.38690717  0.50427372    -0.14130
C1208       C  0.62150403  0.36296911  0.50762540    -0.14130
C1209       C  0.64943314  0.36074976  0.47805968     0.08020
C1210       C  0.64397663  0.38308296  0.44471243    -0.14130
H1211       H  0.60747496  0.42350726  0.41512040     0.12010
H1212       H  0.56860871  0.38775735  0.52791337     0.12010
H1213       H  0.62464675  0.34628796  0.03373860     0.12010
H1214       H  0.66480944  0.38181060  0.42127645     0.12010
C1215       C  0.61237600  0.48202494  0.35851215    -0.14130
C1216       C  0.60893208  0.00821469  0.39009164     0.08020
C1217       C  0.64222905  0.02711862  0.40338386    -0.14130
C1218       C  0.67767832  0.02143892  0.38373961    -0.13910
C1219       C  0.68039481  0.49616429  0.35108296     0.08020
C1220       C  0.64739940  0.47586323  0.33973965    -0.14130
H1221       H  0.58765833  0.46629735  0.34782108     0.12010
H1222       H  0.64054413  0.04731230  0.42782974     0.12010
H1223       H  0.70250150  0.03767197  0.39327060     0.12010
H1224       H  0.64806872  0.45622741  0.31500977     0.12010
C1225       C  0.80328501  0.50869379  0.06084931    -0.14130
C1226       C  0.79926013  0.48272965  0.09164622     0.08020
C1227       C  0.82584184  0.45215627  0.09444299    -0.14130
C1228       C  0.85672337  0.44828929  0.06865984    -0.14130
C1229       C  0.86295596  0.47608161  0.04018925     0.08020
C1230       C  0.83526608  0.50567431  0.03553215    -0.14130
H1231       H  0.78425207  0.03367310  0.05899364     0.12010
H1232       H  0.82525920  0.43408774  0.11940930     0.12010
H1233       H  0.87838643  0.42623899  0.07405970     0.12010
H1234       H  0.84005495  0.52826347  0.01471026     0.12010
C1235       C  0.51748432  0.38250715  0.10676947    -0.14130
C1236       C  0.49330701  0.37871188  0.07483214     0.08020
C1237       C  0.98183903  0.34090308  0.06287592    -0.14130
C1238       C  0.99172093  0.30810556  0.08429373    -0.14130
C1239       C  0.51297476  0.31256072  0.11822430     0.08020
C1240       C  0.52746341  0.34975717  0.12793388    -0.14130
H1241       H  0.52806676  0.41077065  0.11586924     0.12010
H1242       H  0.96397937  0.33665422  0.03762094     0.12010
H1243       H  0.98040560  0.27992911  0.07589403     0.12010
H1244       H  0.54535916  0.35377787  0.15310780     0.12010
C1245       C  0.98955734  0.15711472  0.39372655    -0.14130
C1246       C  0.98144562  0.11771210  0.38610328     0.08020
C1247       C  0.95952339  0.10796496  0.35338314    -0.14130
C1248       C  0.94883353  0.13663442  0.32712067    -0.14130
C1249       C  0.95826797  0.17581014  0.33378482     0.08020
C1250       C  0.97785592  0.18579629  0.36799891    -0.14130
H1251       H  0.50621081  0.16565796  0.41882995     0.12010
H1252       H  0.95301622  0.07782897  0.34660599     0.12010
H1253       H  0.93654664  0.12741776  0.30008935     0.12010
H1254       H  0.48693632  0.21553169  0.37316959     0.12010
C1255       C  0.65619052  0.10507241  0.12152993    -0.14050
C1256       C  0.68032575  0.08875132  0.14009385    -0.15610
C1257       C  0.60505884  0.15068398  0.12829132    -0.14050
C1258       C  0.58902613  0.17193396  0.15177575    -0.15610
C1259       C  0.65777430  0.16764131  0.04672527    -0.14050
C1260       C  0.64231730  0.14698980  0.06973479    -0.15610
C1261       C  0.57761569  0.07415614  0.06528137    -0.14050
C1262       C  0.59906678  0.09536051  0.08327517    -0.15610
C1263       C  0.92624527  0.42205244  0.39176607    -0.14050
C1264       C  0.90260078  0.40345080  0.37454925    -0.15610
C1265       C  0.84159851  0.32551629  0.39368021    -0.14050
C1266       C  0.86023871  0.34848176  0.37594950    -0.15610
C1267       C  0.84968913  0.39780575  0.33043594    -0.14050
C1268       C  0.82338485  0.41273368  0.31385727    -0.15610
C1269       C  0.90442617  0.35616640  0.32550400    -0.14050
C1270       C  0.92596452  0.33572220  0.30732674    -0.15610
C1271       C  0.87902894  0.37696807  0.85176574    -0.03270
C1272       C  0.62530290  0.12431482  0.60069991    -0.03270
O1273       O  0.96700209  0.47400999  0.90442437    -0.80920
O1274       O  0.96473282  0.06433960  0.54276701    -0.80940
O1275       O  0.91629577  0.46363535  0.99672294    -0.80950
O1276       O  0.02388487  0.09466000  0.93504335    -0.80890
O1277       O  0.92578898  0.49765046  0.54984380    -0.81010
O1278       O  0.98234973  0.05243463  0.91142781    -0.80930
O1279       O  0.96349155  0.07499806  0.48020979    -0.80920
O1280       O  0.96498486  0.42561127  0.94558313    -0.80950
C1281       C  0.95419792  0.44149882  0.91475433     1.08770
C1282       C  0.94841372  0.07848490  0.51324956     1.08660
C1283       C  0.90309210  0.48056329  0.02688288     1.08790
C1284       C  0.99715789  0.08696470  0.91122670     1.08670
O1285       O  0.54085653  0.00631104  0.88669812    -0.80920
O1286       O  0.99321788  0.44862741  0.56075678    -0.80990
O1287       O  0.52788442  0.43875863  0.99816497    -0.80930
O1288       O  0.53821196  0.07206308  0.51116939    -0.80910
O1289       O  0.03751231  0.02117682  0.54940676    -0.80960
O1290       O  0.53921618  0.45135879  0.93813434    -0.80930
O1291       O  0.56433050  0.02649337  0.94312714    -0.80890
O1292       O  0.46233367  0.40626590  0.02188158    -0.80960
Co1293     Co  0.50889491  0.50177600  0.93093246     1.51530
Co1294     Co  0.98184824  0.50801805  0.54565064     1.51690
Co1295     Co  0.97243562  0.45213217  0.99639274     1.51570
Co1296     Co  0.01206489  0.04981798  0.96474556     1.51470
O1297       O  0.98480605  0.50322205  0.98445056    -1.42850
C1298       C  0.57000317  0.01530636  0.90711446     1.08700
C1299       C  0.48127351  0.41310924  0.55241032     1.08790
C1300       C  0.54876047  0.43468721  0.96885734     1.08730
C1301       C  0.55024580  0.05443300  0.54064965     1.08700
O1302       O  0.78405300  0.31994275  0.92559639    -0.80920
O1303       O  0.70712958  0.22194061  0.92061557    -0.80940
O1304       O  0.77682652  0.20834652  0.90447398    -0.80950
O1305       O  0.68190368  0.30878987  0.00880071    -0.80890
O1306       O  0.74833880  0.15854729  0.93187986    -0.81010
O1307       O  0.71305706  0.33762281  0.96114970    -0.80930
O1308       O  0.66825477  0.24989001  0.96123759    -0.80920
O1309       O  0.82619772  0.27157232  0.93078997    -0.80950
C1310       C  0.81578651  0.30397560  0.91689110     1.08770
C1311       C  0.67511259  0.23633622  0.92765220     1.08660
C1312       C  0.76162359  0.17387278  0.90120226     1.08790
C1313       C  0.68320826  0.33440398  0.98254612     1.08670
O1314       O  0.74894681  0.32733118  0.53415385    -0.80920
O1315       O  0.78635580  0.18286448  0.99597479    -0.80990
O1316       O  0.81260219  0.24878448  0.00866783    -0.80930
O1317       O  0.67022021  0.23222233  0.53567793    -0.80910
O1318       O  0.70255155  0.18717362  0.49893677    -0.80960
O1319       O  0.81856118  0.31121119  0.50141744    -0.80930
O1320       O  0.73866997  0.26673492  0.55166172    -0.80890
O1321       O  0.83406092  0.19451181  0.95578759    -0.80960
Co1322     Co  0.76532370  0.32117640  0.97918711     1.51530
Co1323     Co  0.74494825  0.20704023  0.95973858     1.51690
Co1324     Co  0.79379825  0.23241229  0.95788439     1.51570
Co1325     Co  0.70640071  0.25603150  0.00491747     1.51470
O1326       O  0.74839508  0.26524102  0.97100211    -1.42850
C1327       C  0.74773091  0.30172904  0.56004334     1.08700
C1328       C  0.82080848  0.17484151  0.98348760     1.08790
C1329       C  0.82633752  0.28046428  0.01971155     1.08730
C1330       C  0.67727513  0.19699257  0.52575659     1.08700
O1331       O  0.94158590  0.30308977  0.75107047    -0.80920
O1332       O  0.52028166  0.29340812  0.68178842    -0.80940
O1333       O  0.52654416  0.31433218  0.75497277    -0.80950
O1334       O  0.93687161  0.22097535  0.65057017    -0.80890
O1335       O  0.58171481  0.29554778  0.72933636    -0.81010
O1336       O  0.92186939  0.27441194  0.68355318    -0.80930
O1337       O  0.01028537  0.24528311  0.63942253    -0.80920
O1338       O  0.96919016  0.28415047  0.80247094    -0.80950
C1339       C  0.94738404  0.30757807  0.78620657     1.08770
C1340       C  0.51480602  0.28164599  0.64753640     1.08660
C1341       C  0.56142332  0.32210932  0.74524259     1.08790
C1342       C  0.91998808  0.25382957  0.65307100     1.08670
O1343       O  0.90973518  0.19861723  0.71654354    -0.80920
O1344       O  0.56569624  0.23125499  0.76945505    -0.80990
O1345       O  0.99545151  0.20775079  0.78925567    -0.80930
O1346       O  0.53505017  0.18010699  0.69063771    -0.80910
O1347       O  0.57092005  0.23048161  0.68450797    -0.80960
O1348       O  0.93360230  0.22267950  0.78747257    -0.80930
O1349       O  0.96093378  0.16232236  0.70426627    -0.80890
O1350       O  0.53900060  0.26825960  0.81439377    -0.80960
Co1351     Co  0.92985914  0.24993833  0.73429619     1.51530
Co1352     Co  0.53946433  0.26169450  0.72347048     1.51690
Co1353     Co  0.50982488  0.25847333  0.77029041     1.51570
Co1354     Co  0.98655682  0.20351941  0.67393829     1.51470
O1355       O  0.98557639  0.23937617  0.72128236    -1.42850
C1356       C  0.92673794  0.16590567  0.71676630     1.08700
C1357       C  0.56527873  0.24487166  0.80497372     1.08790
C1358       C  0.96170766  0.20261204  0.80104077     1.08730
C1359       C  0.56510544  0.19481700  0.67784939     1.08700
O1360       O  0.79347507  0.46737662  0.78784906    -0.80920
O1361       O  0.74102432  0.49405862  0.62971239    -0.80940
O1362       O  0.77572886  0.42265539  0.70543756    -0.80950
O1363       O  0.82204922  0.02178255  0.72680194    -0.80890
O1364       O  0.72331109  0.42869229  0.66985396    -0.81010
O1365       O  0.79986242  0.04492563  0.78068221    -0.80930
O1366       O  0.79771771  0.00427304  0.65589807    -0.80920
O1367       O  0.76405855  0.41040323  0.78294491    -0.80950
C1368       C  0.79203110  0.43065925  0.79461691     1.08770
C1369       C  0.77769014  0.99400213  0.62736950     1.08660
C1370       C  0.75325854  0.40971134  0.67930199     1.08790
C1371       C  0.82742244  0.04210599  0.75662146     1.08670
O1372       O  0.71848680  0.05426285  0.76614963    -0.80920
O1373       O  0.66791080  0.47110055  0.71767954    -0.80990
O1374       O  0.71360494  0.47124738  0.79469552    -0.80930
O1375       O  0.74027118  0.06476957  0.65982290    -0.80910
O1376       O  0.68735057  0.03758382  0.68096117    -0.80960
O1377       O  0.74376484  0.51554532  0.83004508    -0.80930
O1378       O  0.76332449  0.08479842  0.73449737    -0.80890
O1379       O  0.70166190  0.42191175  0.73827084    -0.80960
Co1380     Co  0.75304741  0.01023811  0.77509728     1.51530
Co1381     Co  0.70677758  0.48428499  0.67744030     1.51690
Co1382     Co  0.74937860  0.45062863  0.74924777     1.51570
Co1383     Co  0.77964388  0.04136842  0.69538956     1.51470
O1384       O  0.74686831  0.49853343  0.71784571    -1.42850
C1385       C  0.73687686  0.08510439  0.76050935     1.08700
C1386       C  0.66952113  0.43820846  0.73340006     1.08790
C1387       C  0.71499056  0.49356879  0.82527448     1.08730
C1388       C  0.70391987  0.06352729  0.66222022     1.08700
C1389       C  0.87537309  0.13850013  0.75853844    -0.14130
C1390       C  0.90531811  0.13221626  0.73143789     0.08020
C1391       C  0.91411424  0.09399908  0.71918622    -0.14130
C1392       C  0.89092788  0.06318911  0.73092095    -0.14130
C1393       C  0.85946621  0.06997578  0.75612560     0.08020
C1394       C  0.85370839  0.10742300  0.77183890    -0.14130
H1395       H  0.86875561  0.16754179  0.76956654     0.12010
H1396       H  0.93735054  0.08827829  0.69880519     0.12010
H1397       H  0.89603623  0.03446892  0.71832599     0.12010
H1398       H  0.83054531  0.11314411  0.79211321     0.12010
C1399       C  0.61082898  0.36006889  0.77696088    -0.14130
C1400       C  0.57898112  0.35983055  0.75261615     0.08020
C1401       C  0.57255977  0.39106744  0.72783494    -0.14130
C1402       C  0.60064309  0.41977128  0.72390844    -0.14130
C1403       C  0.63495625  0.41695450  0.74482519     0.08020
C1404       C  0.63865254  0.38835051  0.77307222    -0.14130
H1405       H  0.61616900  0.33601979  0.79613322     0.12010
H1406       H  0.54781214  0.39132735  0.70911060     0.12010
H1407       H  0.59716631  0.44174031  0.70210227     0.12010
H1408       H  0.66459303  0.38597236  0.79003029     0.12010
C1409       C  0.72415933  0.31922457  0.62607572    -0.14130
C1410       C  0.75495499  0.31543737  0.59999400     0.08020
C1411       C  0.78869534  0.33637258  0.60760867    -0.14130
C1412       C  0.79115171  0.36195422  0.63938701    -0.14130
C1413       C  0.75816177  0.37088668  0.66089086     0.08020
C1414       C  0.72543170  0.34748002  0.65585286    -0.14130
H1415       H  0.69743244  0.30436164  0.62036013     0.12010
H1416       H  0.81160059  0.33661788  0.58665256     0.12010
H1417       H  0.81719217  0.37798860  0.64404701     0.12010
H1418       H  0.69955404  0.35366875  0.67254708     0.12010
C1419       C  0.72444459  0.12648004  0.86122241    -0.14130
C1420       C  0.75287956  0.15523498  0.86294768     0.08020
C1421       C  0.77032369  0.16655481  0.82806351    -0.14130
C1422       C  0.76202367  0.14674256  0.79291436    -0.14130
C1423       C  0.73607007  0.11546365  0.79213384     0.08020
C1424       C  0.71575140  0.10743472  0.82639695    -0.14130
H1425       H  0.70912678  0.11801825  0.88711471     0.12010
H1426       H  0.79146188  0.18948296  0.82820772     0.12010
H1427       H  0.77784263  0.15410440  0.76699075     0.12010
H1428       H  0.69490785  0.08425176  0.82708684     0.12010
C1429       C  0.58139403  0.24369225  0.87457770    -0.14130
C1430       C  0.59254182  0.23505552  0.83584976     0.08020
C1431       C  0.63062093  0.22444746  0.82794995    -0.14130
C1432       C  0.65740014  0.22458539  0.85806410    -0.14130
C1433       C  0.64649080  0.23572101  0.89633896     0.08020
C1434       C  0.60807748  0.24443766  0.90435056    -0.14130
H1435       H  0.55202335  0.25170236  0.88175029     0.12010
H1436       H  0.64002071  0.21808108  0.79850556     0.12010
H1437       H  0.68693197  0.21704364  0.85113955     0.12010
H1438       H  0.59869839  0.25220147  0.93350945     0.12010
C1439       C  0.87717080  0.30584204  0.56697020    -0.14130
C1440       C  0.84911763  0.27871617  0.55582439     0.08020
C1441       C  0.84213906  0.24687664  0.58000041    -0.14130
C1442       C  0.86512716  0.23954009  0.61158918    -0.14130
C1443       C  0.89416363  0.26524264  0.62176354     0.08020
C1444       C  0.89866969  0.29972636  0.60084309    -0.14130
H1445       H  0.88233076  0.33133152  0.54978783     0.12010
H1446       H  0.81934982  0.22646277  0.57378635     0.12010
H1447       H  0.86031616  0.21347505  0.62809025     0.12010
H1448       H  0.91957225  0.32101489  0.60993607     0.12010
C1449       C  0.90027125  0.12780749  0.54036171    -0.14130
C1450       C  0.91018384  0.09739611  0.51439783     0.08020
C1451       C  0.88544098  0.08864783  0.98341771    -0.14130
C1452       C  0.85354229  0.11188079  0.97619323    -0.14130
C1453       C  0.84533233  0.14432949  0.99988578     0.08020
C1454       C  0.86798680  0.15138654  0.53290079    -0.14130
H1455       H  0.91904648  0.13535342  0.56417092     0.12010
H1456       H  0.89230762  0.06513984  0.96304901     0.12010
H1457       H  0.83696100  0.10626906  0.95024209     0.12010
H1458       H  0.86271426  0.17676948  0.55100738     0.12010
C1459       C  0.61113293  0.40688269  0.94112728    -0.14130
C1460       C  0.58347004  0.40921948  0.97104503     0.08020
C1461       C  0.58922895  0.38690716  0.00427372    -0.14130
C1462       C  0.62150402  0.36296910  0.00762540    -0.14130
C1463       C  0.64943314  0.36074975  0.97805968     0.08020
C1464       C  0.64397663  0.38308297  0.94471244    -0.14130
H1465       H  0.60747497  0.42350727  0.91512041     0.12010
H1466       H  0.56860870  0.38775733  0.02791336     0.12010
H1467       H  0.62464677  0.34628798  0.53373861     0.12010
H1468       H  0.66480945  0.38181062  0.92127646     0.12010
C1469       C  0.61237600  0.48202494  0.85851215    -0.14130
C1470       C  0.60893207  0.00821469  0.89009163     0.08020
C1471       C  0.64222905  0.02711860  0.90338386    -0.14130
C1472       C  0.67767832  0.02143890  0.88373961    -0.13910
C1473       C  0.68039481  0.49616430  0.85108296     0.08020
C1474       C  0.64739940  0.47586323  0.83973965    -0.14130
H1475       H  0.58765832  0.46629735  0.84782108     0.12010
H1476       H  0.64054413  0.04731227  0.92782974     0.12010
H1477       H  0.70250150  0.03767193  0.89327062     0.12010
H1478       H  0.64806871  0.45622741  0.81500977     0.12010
C1479       C  0.80328501  0.50869377  0.56084930    -0.14130
C1480       C  0.79926014  0.48272964  0.59164623     0.08020
C1481       C  0.82584186  0.45215627  0.59444301    -0.14130
C1482       C  0.85672339  0.44828930  0.56865986    -0.14130
C1483       C  0.86295597  0.47608160  0.54018926     0.08020
C1484       C  0.83526608  0.50567429  0.53553214    -0.14130
H1485       H  0.78425208  0.03367312  0.55899365     0.12010
H1486       H  0.82525923  0.43408776  0.61940934     0.12010
H1487       H  0.87838645  0.42623901  0.57405973     0.12010
H1488       H  0.84005494  0.52826344  0.51471024     0.12010
C1489       C  0.51748433  0.38250715  0.60676946    -0.14130
C1490       C  0.49330701  0.37871188  0.57483214     0.08020
C1491       C  0.98183904  0.34090308  0.56287592    -0.14130
C1492       C  0.99172093  0.30810556  0.58429373    -0.14130
C1493       C  0.51297477  0.31256071  0.61822429     0.08020
C1494       C  0.52746341  0.34975717  0.62793388    -0.14130
H1495       H  0.52806677  0.41077065  0.61586923     0.12010
H1496       H  0.96397938  0.33665422  0.53762094     0.12010
H1497       H  0.98040560  0.27992911  0.57589403     0.12010
H1498       H  0.54535917  0.35377787  0.65310779     0.12010
C1499       C  0.98955735  0.15711472  0.89372654    -0.14130
C1500       C  0.98144561  0.11771210  0.88610327     0.08020
C1501       C  0.95952338  0.10796496  0.85338314    -0.14130
C1502       C  0.94883351  0.13663442  0.82712067    -0.14130
C1503       C  0.95826796  0.17581014  0.83378482     0.08020
C1504       C  0.97785593  0.18579628  0.86799890    -0.14130
H1505       H  0.50621083  0.16565795  0.91882994     0.12010
H1506       H  0.95301619  0.07782897  0.84660600     0.12010
H1507       H  0.93654662  0.12741776  0.80008936     0.12010
H1508       H  0.48693633  0.21553169  0.87316958     0.12010
C1509       C  0.65619052  0.10507241  0.62152993    -0.14050
C1510       C  0.68032576  0.08875132  0.64009385    -0.15610
C1511       C  0.60505885  0.15068398  0.62829132    -0.14050
C1512       C  0.58902613  0.17193397  0.65177576    -0.15610
C1513       C  0.65777430  0.16764131  0.54672526    -0.14050
C1514       C  0.64231730  0.14698980  0.56973480    -0.15610
C1515       C  0.57761569  0.07415614  0.56528138    -0.14050
C1516       C  0.59906678  0.09536051  0.58327518    -0.15610
C1517       C  0.92624527  0.42205244  0.89176607    -0.14050
C1518       C  0.90260078  0.40345080  0.87454925    -0.15610
C1519       C  0.84159851  0.32551629  0.89368022    -0.14050
C1520       C  0.86023871  0.34848177  0.87594950    -0.15610
C1521       C  0.84968913  0.39780575  0.83043594    -0.14050
C1522       C  0.82338484  0.41273368  0.81385727    -0.15610
C1523       C  0.90442617  0.35616640  0.82550399    -0.14050
C1524       C  0.92596451  0.33572220  0.80732673    -0.15610
C1525       C  0.87902277  0.87696423  0.35176405    -0.03270
C1526       C  0.62530506  0.62431513  0.10070547    -0.03270
O1527       O  0.96699792  0.97400442  0.40442234    -0.80920
O1528       O  0.96473389  0.56434131  0.04277036    -0.80940
O1529       O  0.91629171  0.96363222  0.49672240    -0.80950
O1530       O  0.02388548  0.59466714  0.43504769    -0.80890
O1531       O  0.92578462  0.99765059  0.04984135    -0.81010
O1532       O  0.98235226  0.55243999  0.41143136    -0.80930
O1533       O  0.96349293  0.57500229  0.98021364    -0.80920
O1534       O  0.96497908  0.92560662  0.44558217    -0.80950
C1535       C  0.95419243  0.94149402  0.41475312     1.08770
C1536       C  0.94841401  0.57848628  0.01325312     1.08660
C1537       C  0.90308764  0.98056326  0.52688057     1.08790
C1538       C  0.99715935  0.58697048  0.41123038     1.08670
O1539       O  0.54085946  0.50631838  0.38670073    -0.80920
O1540       O  0.99321316  0.94862510  0.06075510    -0.80990
O1541       O  0.52788015  0.93875299  0.49816335    -0.80930
O1542       O  0.53821351  0.57206809  0.01117384    -0.80910
O1543       O  0.03751501  0.52118000  0.04940885    -0.80960
O1544       O  0.53921200  0.95135230  0.43813256    -0.80930
O1545       O  0.56433310  0.52650105  0.44312989    -0.80890
O1546       O  0.46232869  0.90626244  0.52188114    -0.80960
Co1547     Co  0.50889145  0.00177009  0.43092985     1.51530
Co1548     Co  0.98184493  0.00801580  0.04564829     1.51690
Co1549     Co  0.97243140  0.95212792  0.49639151     1.51570
Co1550     Co  0.01206697  0.54982397  0.46474908     1.51470
O1551       O  0.98480271  0.00321754  0.48444827    -1.42850
C1552       C  0.57000586  0.51531421  0.40711713     1.08700
C1553       C  0.48126902  0.91310665  0.05240938     1.08790
C1554       C  0.54875646  0.93468133  0.46885590     1.08730
C1555       C  0.55024765  0.55443680  0.04065331     1.08700
O1556       O  0.78404990  0.81993671  0.42559520    -0.80920
O1557       O  0.70712482  0.72193828  0.42061618    -0.80940
O1558       O  0.77682174  0.70834327  0.40447318    -0.80950
O1559       O  0.68190317  0.80878744  0.50880274    -0.80890
O1560       O  0.74833225  0.65854368  0.43187703    -0.81010
O1561       O  0.71305589  0.83761940  0.46115095    -0.80930
O1562       O  0.66825168  0.74988886  0.46123899    -0.80920
O1563       O  0.82619474  0.77156634  0.43078833    -0.80950
C1564       C  0.81578314  0.80396943  0.41688920     1.08770
C1565       C  0.67510849  0.73633505  0.42765348     1.08660
C1566       C  0.76161735  0.67387046  0.40120013     1.08790
C1567       C  0.68320730  0.83440116  0.48254778     1.08670
O1568       O  0.74894849  0.82732578  0.03415427    -0.80920
O1569       O  0.78635195  0.68285818  0.49597252    -0.80990
O1570       O  0.81260060  0.74877771  0.50866647    -0.80930
O1571       O  0.67021822  0.73222008  0.03567867    -0.80910
O1572       O  0.70254832  0.68717058  0.99893712    -0.80960
O1573       O  0.81856092  0.81120420  0.00141476    -0.80930
O1574       O  0.73866917  0.76672961  0.05166136    -0.80890
O1575       O  0.83405684  0.69450476  0.45578496    -0.80960
Co1576     Co  0.76532288  0.82117115  0.47918663     1.51530
Co1577     Co  0.74494414  0.70703597  0.45973758     1.51690
Co1578     Co  0.79379517  0.73240669  0.45788335     1.51570
Co1579     Co  0.70639869  0.75602825  0.50491791     1.51470
O1580       O  0.74839299  0.76523640  0.47100214    -1.42850
C1581       C  0.74773069  0.80172339  0.06004351     1.08700
C1582       C  0.82080442  0.67483456  0.48348507     1.08790
C1583       C  0.82633710  0.78045737  0.51970910     1.08730
C1584       C  0.67727285  0.69699023  0.02575759     1.08700
O1585       O  0.94158288  0.80308927  0.25106839    -0.80920
O1586       O  0.52027999  0.79340844  0.18178820    -0.80940
O1587       O  0.52654006  0.81433423  0.25497186    -0.80950
O1588       O  0.93687321  0.72097318  0.15056869    -0.80890
O1589       O  0.58171184  0.79555065  0.22933756    -0.81010
O1590       O  0.92186843  0.77440980  0.18355074    -0.80930
O1591       O  0.01028663  0.74528252  0.13942263    -0.80920
O1592       O  0.96918666  0.78415095  0.30246950    -0.80950
C1593       C  0.94738032  0.80757786  0.28620459     1.08770
C1594       C  0.51480581  0.78164567  0.14753617     1.08660
C1595       C  0.56141926  0.82211203  0.24524260     1.08790
C1596       C  0.91998858  0.75382688  0.15306875     1.08670
O1597       O  0.90973571  0.69861579  0.21654178    -0.80920
O1598       O  0.56569397  0.73125777  0.26945645    -0.80990
O1599       O  0.99545055  0.70775225  0.28925546    -0.80930
O1600       O  0.53505150  0.68010813  0.19064013    -0.80910
O1601       O  0.57092014  0.73048357  0.18451002    -0.80960
O1602       O  0.93360096  0.72267921  0.28747123    -0.80930
O1603       O  0.96093543  0.66232192  0.20426674    -0.80890
O1604       O  0.53899702  0.76826309  0.31439373    -0.80960
Co1605     Co  0.92985782  0.74993736  0.23429440     1.51530
Co1606     Co  0.53946253  0.76169612  0.22347108     1.51690
Co1607     Co  0.50982253  0.75847506  0.27028990     1.51570
Co1608     Co  0.98655815  0.70351888  0.17393852     1.51470
O1609       O  0.98557540  0.73937644  0.22128180    -1.42850
C1610       C  0.92673948  0.66590491  0.21676643     1.08700
C1611       C  0.56527546  0.74487513  0.30497481     1.08790
C1612       C  0.96170671  0.70261267  0.30104004     1.08730
C1613       C  0.56510683  0.69481857  0.17785255     1.08700
O1614       O  0.79347219  0.96737179  0.28784394    -0.80920
O1615       O  0.74101840  0.99406206  0.12970907    -0.80940
O1616       O  0.77572378  0.92265515  0.20543069    -0.80950
O1617       O  0.82205098  0.52178400  0.22680683    -0.80890
O1618       O  0.72330534  0.92869490  0.16984859    -0.81010
O1619       O  0.79986276  0.54493050  0.28068484    -0.80930
O1620       O  0.79772177  0.50427128  0.15590455    -0.80920
O1621       O  0.76405413  0.91039948  0.28293751    -0.80950
C1622       C  0.79202684  0.93065438  0.29461106     1.08770
C1623       C  0.77769623  0.49399830  0.12737537     1.08660
C1624       C  0.75325206  0.90971232  0.17929587     1.08790
C1625       C  0.82742364  0.54210887  0.25662542     1.08670
O1626       O  0.71848695  0.55426419  0.26614996    -0.80920
O1627       O  0.66790687  0.97110244  0.21767700    -0.80990
O1628       O  0.71360212  0.97124422  0.29469089    -0.80930
O1629       O  0.74027435  0.56476700  0.15982385    -0.80910
O1630       O  0.68735366  0.53758081  0.18096151    -0.80960
O1631       O  0.74376329  0.01553914  0.33004277    -0.80930
O1632       O  0.76332477  0.58479922  0.23449731    -0.80890
O1633       O  0.70165726  0.92191166  0.23826483    -0.80960
Co1634     Co  0.75304908  0.51024128  0.27510020     1.51530
Co1635     Co  0.70677311  0.98428756  0.17743747     1.51690
Co1636     Co  0.74937491  0.95062688  0.24924218     1.51570
Co1637     Co  0.77964632  0.54136805  0.19539256     1.51470
O1638       O  0.74686552  0.99853326  0.21784216    -1.42850
C1639       C  0.73687576  0.58510607  0.26050775     1.08700
C1640       C  0.66951679  0.93820951  0.23339584     1.08790
C1641       C  0.71498838  0.99356358  0.32527116     1.08730
C1642       C  0.70392305  0.56352469  0.16222122     1.08700
C1643       C  0.87537841  0.63850036  0.25854348    -0.14130
C1644       C  0.90532072  0.63221601  0.23143996     0.08020
C1645       C  0.91411501  0.59399893  0.21918695    -0.14130
C1646       C  0.89092867  0.56318958  0.23092289    -0.14130
C1647       C  0.85946870  0.56997695  0.25612960     0.08020
C1648       C  0.85371359  0.60742376  0.27184485    -0.14130
H1649       H  0.86876285  0.66754203  0.26957272     0.12010
H1650       H  0.93734945  0.58827790  0.19880378     0.12010
H1651       H  0.89603518  0.53446956  0.21832678     0.12010
H1652       H  0.83055216  0.61314523  0.29212109     0.12010
C1653       C  0.61082463  0.86007199  0.27695989    -0.14130
C1654       C  0.57897613  0.85983363  0.25261608     0.08020
C1655       C  0.57255429  0.89107028  0.22783467    -0.14130
C1656       C  0.60063796  0.91977358  0.22390669    -0.14130
C1657       C  0.63495187  0.91695630  0.24482210     0.08020
C1658       C  0.63864868  0.88835271  0.27306944    -0.14130
H1659       H  0.61616498  0.83602313  0.29613243     0.12010
H1660       H  0.54780607  0.89133022  0.20911111     0.12010
H1661       H  0.59716080  0.94174239  0.20210036     0.12010
H1662       H  0.66458978  0.88597424  0.29002652     0.12010
C1663       C  0.72414876  0.81922722  0.12606878    -0.14130
C1664       C  0.75495005  0.81543143  0.09999501     0.08020
C1665       C  0.78869281  0.83636052  0.10761615    -0.14130
C1666       C  0.79114606  0.86194560  0.13939221    -0.14130
C1667       C  0.75815207  0.87088673  0.16088628     0.08020
C1668       C  0.72541903  0.84748548  0.15584307    -0.14130
H1669       H  0.69742035  0.80436898  0.12034807     0.12010
H1670       H  0.81160328  0.83659896  0.08666602     0.12010
H1671       H  0.81718851  0.87797642  0.14405701     0.12010
H1672       H  0.69953854  0.85368031  0.17253068     0.12010
C1673       C  0.72442921  0.62648982  0.36121495    -0.14130
C1674       C  0.75287229  0.65523627  0.36294454     0.08020
C1675       C  0.77032514  0.66655137  0.32806329    -0.14130
C1676       C  0.76202625  0.64674088  0.29291323    -0.14130
C1677       C  0.73606572  0.61546804  0.29212912     0.08020
C1678       C  0.71573778  0.60744561  0.32638835    -0.14130
H1679       H  0.70910459  0.61803311  0.38710495     0.12010
H1680       H  0.79146972  0.68947351  0.32821091     0.12010
H1681       H  0.77785194  0.65409805  0.26699233     0.12010
H1682       H  0.69488895  0.58426730  0.32707496     0.12010
C1683       C  0.58139079  0.74369996  0.37457899    -0.14130
C1684       C  0.59253774  0.73505947  0.33585154     0.08020
C1685       C  0.63061549  0.72444607  0.32795228    -0.14130
C1686       C  0.65739457  0.72458239  0.35806635    -0.14130
C1687       C  0.64648647  0.73572143  0.39634062     0.08020
C1688       C  0.60807423  0.74444357  0.40435184    -0.14130
H1689       H  0.55202097  0.75171389  0.38175120     0.12010
H1690       H  0.64001448  0.71807642  0.29850827     0.12010
H1691       H  0.68692548  0.71703652  0.35114211     0.12010
H1692       H  0.59869606  0.75221028  0.43351032     0.12010
C1693       C  0.87717249  0.80583522  0.06696499    -0.14130
C1694       C  0.84911844  0.77870959  0.05582099     0.08020
C1695       C  0.84213911  0.74687166  0.07999883    -0.14130
C1696       C  0.86512734  0.73953613  0.11158777    -0.14130
C1697       C  0.89416444  0.76523854  0.12176058     0.08020
C1698       C  0.89867129  0.79972089  0.10083816    -0.14130
H1699       H  0.88233274  0.83132377  0.04978135     0.12010
H1700       H  0.81934878  0.72645857  0.07378636     0.12010
H1701       H  0.86031571  0.71347222  0.12809041     0.12010
H1702       H  0.91957399  0.82100959  0.10993023     0.12010
C1703       C  0.90026666  0.62780479  0.04036370    -0.14130
C1704       C  0.91018206  0.59739346  0.01440089     0.08020
C1705       C  0.88544049  0.58864265  0.48342026    -0.14130
C1706       C  0.85354138  0.61187441  0.47619323    -0.14130
C1707       C  0.84532885  0.64432339  0.49988460     0.08020
C1708       C  0.86798117  0.65138173  0.03290092    -0.14130
H1709       H  0.91904058  0.63535253  0.06417342     0.12010
H1710       H  0.89230929  0.56513460  0.46305237     0.12010
H1711       H  0.83696177  0.60626145  0.45024123     0.12010
H1712       H  0.86270642  0.67676445  0.05100701     0.12010
C1713       C  0.61112952  0.90687661  0.44112639    -0.14130
C1714       C  0.58346686  0.90921436  0.47104439     0.08020
C1715       C  0.58922705  0.88690408  0.50427430    -0.14130
C1716       C  0.62150291  0.86296704  0.50762686    -0.14130
C1717       C  0.64943167  0.86074660  0.47806081     0.08020
C1718       C  0.64397395  0.88307787  0.44471239    -0.14130
H1719       H  0.60747082  0.92349970  0.41511861     0.12010
H1720       H  0.56860720  0.88775510  0.52791428     0.12010
H1721       H  0.62464648  0.84628743  0.03374094     0.12010
H1722       H  0.66480636  0.88180464  0.42127607     0.12010
C1723       C  0.61237289  0.98202040  0.35850674    -0.14130
C1724       C  0.60893464  0.50822256  0.39009435     0.08020
C1725       C  0.64223084  0.52712961  0.40338389    -0.14130
C1726       C  0.67767993  0.52144928  0.38373968    -0.13910
C1727       C  0.68039251  0.99615789  0.35107987     0.08020
C1728       C  0.64739627  0.97585964  0.33973396    -0.14130
H1729       H  0.58765475  0.96629507  0.34781343     0.12010
H1730       H  0.64054534  0.54732611  0.42782746     0.12010
H1731       H  0.70250247  0.53768475  0.39326832     0.12010
H1732       H  0.64806490  0.95622712  0.31500171     0.12010
C1733       C  0.80329076  0.00871861  0.06085494    -0.14130
C1734       C  0.79925041  0.98273894  0.09163644     0.08020
C1735       C  0.82581618  0.95214937  0.09441726    -0.14130
C1736       C  0.85670035  0.94828347  0.06863618    -0.14130
C1737       C  0.86294864  0.97608955  0.04018213     0.08020
C1738       C  0.83527217  0.00569753  0.03553900    -0.14130
H1739       H  0.78423417  0.53363752  0.05897576     0.12010
H1740       H  0.82521845  0.93406306  0.11937003     0.12010
H1741       H  0.87835265  0.92621944  0.07402528     0.12010
H1742       H  0.84007251  0.02829582  0.01472991     0.12010
C1743       C  0.51747936  0.88250689  0.10676982    -0.14130
C1744       C  0.49330404  0.87870994  0.07483119     0.08020
C1745       C  0.98183984  0.84090029  0.06287371    -0.14130
C1746       C  0.99172295  0.80810336  0.08429183    -0.14130
C1747       C  0.51297431  0.81256005  0.11822381     0.08020
C1748       C  0.52745977  0.84975756  0.12793443    -0.14130
H1749       H  0.52805906  0.91077119  0.11587055     0.12010
H1750       H  0.96398206  0.83665024  0.03761754     0.12010
H1751       H  0.98041019  0.77992607  0.07589126     0.12010
H1752       H  0.54535379  0.85377956  0.15310941     0.12010
C1753       C  0.98955232  0.65711995  0.39372962    -0.14130
C1754       C  0.98144678  0.61771616  0.38610530     0.08020
C1755       C  0.95953052  0.60796570  0.35338204    -0.14130
C1756       C  0.94884019  0.63663340  0.32711813    -0.14130
C1757       C  0.95826726  0.67581073  0.33378395     0.08020
C1758       C  0.97784990  0.68579988  0.36800045    -0.14130
H1759       H  0.50620150  0.66566547  0.41883523     0.12010
H1760       H  0.95302886  0.57782867  0.34660373     0.12010
H1761       H  0.93655923  0.62741452  0.30008467     0.12010
H1762       H  0.48692558  0.71553666  0.37317217     0.12010
C1763       C  0.65619317  0.60507216  0.12153414    -0.14050
C1764       C  0.68032890  0.58874995  0.14009638    -0.15610
C1765       C  0.60506210  0.65068477  0.12829710    -0.14050
C1766       C  0.58902902  0.67193532  0.15178069    -0.15610
C1767       C  0.65777348  0.66763968  0.04672800    -0.14050
C1768       C  0.64231826  0.64698930  0.06973948    -0.15610
C1769       C  0.57761701  0.57415877  0.06528617    -0.14050
C1770       C  0.59906819  0.59536166  0.08328128    -0.15610
C1771       C  0.92623871  0.92204834  0.39176533    -0.14050
C1772       C  0.90259383  0.90344728  0.37454828    -0.15610
C1773       C  0.84159447  0.82551018  0.39367770    -0.14050
C1774       C  0.86023355  0.84847660  0.37594706    -0.15610
C1775       C  0.84968255  0.89780088  0.33043378    -0.14050
C1776       C  0.82337901  0.91272795  0.31385319    -0.15610
C1777       C  0.90442078  0.85616412  0.32550211    -0.14050
C1778       C  0.92595975  0.83572119  0.30732440    -0.15610
C1779       C  0.87902277  0.87696422  0.85176405    -0.03270
C1780       C  0.62530507  0.62431513  0.60070546    -0.03270
O1781       O  0.96699791  0.97400442  0.90442233    -0.80920
O1782       O  0.96473389  0.56434130  0.54277036    -0.80940
O1783       O  0.91629170  0.96363221  0.99672240    -0.80950
O1784       O  0.02388548  0.59466714  0.93504769    -0.80890
O1785       O  0.92578461  0.99765059  0.54984136    -0.81010
O1786       O  0.98235226  0.55243999  0.91143136    -0.80930
O1787       O  0.96349293  0.57500230  0.48021364    -0.80920
O1788       O  0.96497907  0.92560662  0.94558217    -0.80950
C1789       C  0.95419242  0.94149402  0.91475312     1.08770
C1790       C  0.94841401  0.57848628  0.51325312     1.08660
C1791       C  0.90308764  0.98056326  0.02688057     1.08790
C1792       C  0.99715935  0.58697048  0.91123038     1.08670
O1793       O  0.54085946  0.50631838  0.88670073    -0.80920
O1794       O  0.99321316  0.94862510  0.56075510    -0.80990
O1795       O  0.52788014  0.93875299  0.99816335    -0.80930
O1796       O  0.53821351  0.57206809  0.51117384    -0.80910
O1797       O  0.03751501  0.52118000  0.54940885    -0.80960
O1798       O  0.53921199  0.95135229  0.93813256    -0.80930
O1799       O  0.56433309  0.52650105  0.94312989    -0.80890
O1800       O  0.46232868  0.90626244  0.02188114    -0.80960
Co1801     Co  0.50889145  0.00177009  0.93092985     1.51530
Co1802     Co  0.98184493  0.00801580  0.54564830     1.51690
Co1803     Co  0.97243140  0.95212792  0.99639150     1.51570
Co1804     Co  0.01206697  0.54982397  0.96474908     1.51470
O1805       O  0.98480270  0.00321753  0.98444826    -1.42850
C1806       C  0.57000585  0.51531421  0.90711713     1.08700
C1807       C  0.48126902  0.91310666  0.55240938     1.08790
C1808       C  0.54875646  0.93468132  0.96885589     1.08730
C1809       C  0.55024765  0.55443680  0.54065331     1.08700
O1810       O  0.78404990  0.81993671  0.92559520    -0.80920
O1811       O  0.70712482  0.72193828  0.92061618    -0.80940
O1812       O  0.77682174  0.70834327  0.90447318    -0.80950
O1813       O  0.68190317  0.80878744  0.00880274    -0.80890
O1814       O  0.74833225  0.65854368  0.93187703    -0.81010
O1815       O  0.71305589  0.83761940  0.96115095    -0.80930
O1816       O  0.66825168  0.74988886  0.96123899    -0.80920
O1817       O  0.82619474  0.77156634  0.93078833    -0.80950
C1818       C  0.81578314  0.80396942  0.91688921     1.08770
C1819       C  0.67510849  0.73633505  0.92765348     1.08660
C1820       C  0.76161734  0.67387046  0.90120014     1.08790
C1821       C  0.68320730  0.83440116  0.98254778     1.08670
O1822       O  0.74894849  0.82732578  0.53415427    -0.80920
O1823       O  0.78635195  0.68285818  0.99597253    -0.80990
O1824       O  0.81260060  0.74877770  0.00866647    -0.80930
O1825       O  0.67021822  0.73222008  0.53567866    -0.80910
O1826       O  0.70254832  0.68717058  0.49893712    -0.80960
O1827       O  0.81856092  0.81120420  0.50141475    -0.80930
O1828       O  0.73866917  0.76672961  0.55166136    -0.80890
O1829       O  0.83405684  0.69450475  0.95578497    -0.80960
Co1830     Co  0.76532288  0.82117115  0.97918663     1.51530
Co1831     Co  0.74494413  0.70703596  0.95973758     1.51690
Co1832     Co  0.79379516  0.73240669  0.95788335     1.51570
Co1833     Co  0.70639869  0.75602825  0.00491791     1.51470
O1834       O  0.74839299  0.76523639  0.97100215    -1.42850
C1835       C  0.74773069  0.80172339  0.56004351     1.08700
C1836       C  0.82080441  0.67483456  0.98348508     1.08790
C1837       C  0.82633710  0.78045737  0.01970910     1.08730
C1838       C  0.67727285  0.69699023  0.52575758     1.08700
O1839       O  0.94158288  0.80308927  0.75106839    -0.80920
O1840       O  0.52027999  0.79340844  0.68178820    -0.80940
O1841       O  0.52654006  0.81433423  0.75497186    -0.80950
O1842       O  0.93687322  0.72097318  0.65056869    -0.80890
O1843       O  0.58171184  0.79555065  0.72933756    -0.81010
O1844       O  0.92186843  0.77440980  0.68355074    -0.80930
O1845       O  0.01028663  0.74528251  0.63942263    -0.80920
O1846       O  0.96918666  0.78415095  0.80246950    -0.80950
C1847       C  0.94738032  0.80757786  0.78620459     1.08770
C1848       C  0.51480581  0.78164567  0.64753617     1.08660
C1849       C  0.56141926  0.82211203  0.74524260     1.08790
C1850       C  0.91998858  0.75382688  0.65306875     1.08670
O1851       O  0.90973572  0.69861579  0.71654178    -0.80920
O1852       O  0.56569397  0.73125777  0.76945645    -0.80990
O1853       O  0.99545055  0.70775225  0.78925546    -0.80930
O1854       O  0.53505150  0.68010812  0.69064013    -0.80910
O1855       O  0.57092015  0.73048357  0.68451002    -0.80960
O1856       O  0.93360096  0.72267921  0.78747123    -0.80930
O1857       O  0.96093543  0.66232192  0.70426674    -0.80890
O1858       O  0.53899702  0.76826308  0.81439373    -0.80960
Co1859     Co  0.92985782  0.74993735  0.73429440     1.51530
Co1860     Co  0.53946253  0.76169611  0.72347108     1.51690
Co1861     Co  0.50982253  0.75847505  0.77028990     1.51570
Co1862     Co  0.98655815  0.70351888  0.67393852     1.51470
O1863       O  0.98557540  0.73937643  0.72128180    -1.42850
C1864       C  0.92673948  0.66590491  0.71676643     1.08700
C1865       C  0.56527546  0.74487513  0.80497481     1.08790
C1866       C  0.96170671  0.70261266  0.80104003     1.08730
C1867       C  0.56510684  0.69481857  0.67785255     1.08700
O1868       O  0.79347219  0.96737178  0.78784394    -0.80920
O1869       O  0.74101840  0.99406207  0.62970907    -0.80940
O1870       O  0.77572378  0.92265514  0.70543068    -0.80950
O1871       O  0.82205098  0.52178400  0.72680683    -0.80890
O1872       O  0.72330534  0.92869490  0.66984859    -0.81010
O1873       O  0.79986276  0.54493050  0.78068484    -0.80930
O1874       O  0.79772177  0.50427128  0.65590455    -0.80920
O1875       O  0.76405413  0.91039948  0.78293750    -0.80950
C1876       C  0.79202684  0.93065437  0.79461105     1.08770
C1877       C  0.77769623  0.49399829  0.62737537     1.08660
C1878       C  0.75325206  0.90971232  0.67929586     1.08790
C1879       C  0.82742364  0.54210887  0.75662542     1.08670
O1880       O  0.71848694  0.55426419  0.76614996    -0.80920
O1881       O  0.66790687  0.97110244  0.71767699    -0.80990
O1882       O  0.71360211  0.97124421  0.79469088    -0.80930
O1883       O  0.74027435  0.56476700  0.65982385    -0.80910
O1884       O  0.68735366  0.53758081  0.68096150    -0.80960
O1885       O  0.74376329  0.01553912  0.83004277    -0.80930
O1886       O  0.76332477  0.58479922  0.73449731    -0.80890
O1887       O  0.70165726  0.92191165  0.73826482    -0.80960
Co1888     Co  0.75304907  0.51024128  0.77510020     1.51530
Co1889     Co  0.70677311  0.98428756  0.67743747     1.51690
Co1890     Co  0.74937491  0.95062688  0.74924218     1.51570
Co1891     Co  0.77964632  0.54136805  0.69539257     1.51470
O1892       O  0.74686552  0.99853326  0.71784215    -1.42850
C1893       C  0.73687575  0.58510607  0.76050775     1.08700
C1894       C  0.66951679  0.93820951  0.73339583     1.08790
C1895       C  0.71498838  0.99356357  0.82527116     1.08730
C1896       C  0.70392305  0.56352469  0.66222122     1.08700
C1897       C  0.87537841  0.63850036  0.75854348    -0.14130
C1898       C  0.90532072  0.63221600  0.73143996     0.08020
C1899       C  0.91411501  0.59399893  0.71918695    -0.14130
C1900       C  0.89092867  0.56318958  0.73092289    -0.14130
C1901       C  0.85946870  0.56997695  0.75612960     0.08020
C1902       C  0.85371359  0.60742376  0.77184485    -0.14130
H1903       H  0.86876285  0.66754203  0.76957272     0.12010
H1904       H  0.93734945  0.58827789  0.69880378     0.12010
H1905       H  0.89603518  0.53446955  0.71832678     0.12010
H1906       H  0.83055216  0.61314523  0.79212109     0.12010
C1907       C  0.61082463  0.86007199  0.77695989    -0.14130
C1908       C  0.57897613  0.85983363  0.75261608     0.08020
C1909       C  0.57255429  0.89107028  0.72783466    -0.14130
C1910       C  0.60063795  0.91977357  0.72390668    -0.14130
C1911       C  0.63495187  0.91695630  0.74482209     0.08020
C1912       C  0.63864868  0.88835271  0.77306943    -0.14130
H1913       H  0.61616498  0.83602313  0.79613243     0.12010
H1914       H  0.54780606  0.89133022  0.70911111     0.12010
H1915       H  0.59716080  0.94174239  0.70210035     0.12010
H1916       H  0.66458978  0.88597424  0.79002652     0.12010
C1917       C  0.72414876  0.81922722  0.62606877    -0.14130
C1918       C  0.75495006  0.81543143  0.59999501     0.08020
C1919       C  0.78869281  0.83636052  0.60761615    -0.14130
C1920       C  0.79114606  0.86194560  0.63939221    -0.14130
C1921       C  0.75815207  0.87088673  0.66088628     0.08020
C1922       C  0.72541903  0.84748548  0.65584307    -0.14130
H1923       H  0.69742035  0.80436898  0.62034807     0.12010
H1924       H  0.81160329  0.83659896  0.58666603     0.12010
H1925       H  0.81718851  0.87797641  0.64405701     0.12010
H1926       H  0.69953854  0.85368032  0.67253067     0.12010
C1927       C  0.72442921  0.62648982  0.86121495    -0.14130
C1928       C  0.75287229  0.65523627  0.86294454     0.08020
C1929       C  0.77032514  0.66655137  0.82806330    -0.14130
C1930       C  0.76202625  0.64674088  0.79291323    -0.14130
C1931       C  0.73606572  0.61546804  0.79212912     0.08020
C1932       C  0.71573777  0.60744561  0.82638835    -0.14130
H1933       H  0.70910459  0.61803311  0.88710495     0.12010
H1934       H  0.79146972  0.68947351  0.82821091     0.12010
H1935       H  0.77785194  0.65409805  0.76699233     0.12010
H1936       H  0.69488895  0.58426730  0.82707496     0.12010
C1937       C  0.58139079  0.74369996  0.87457899    -0.14130
C1938       C  0.59253774  0.73505947  0.83585154     0.08020
C1939       C  0.63061548  0.72444607  0.82795228    -0.14130
C1940       C  0.65739457  0.72458239  0.85806636    -0.14130
C1941       C  0.64648647  0.73572143  0.89634063     0.08020
C1942       C  0.60807423  0.74444357  0.90435184    -0.14130
H1943       H  0.55202097  0.75171389  0.88175120     0.12010
H1944       H  0.64001448  0.71807642  0.79850828     0.12010
H1945       H  0.68692547  0.71703651  0.85114211     0.12010
H1946       H  0.59869606  0.75221028  0.93351032     0.12010
C1947       C  0.87717249  0.80583522  0.56696498    -0.14130
C1948       C  0.84911844  0.77870959  0.55582099     0.08020
C1949       C  0.84213911  0.74687166  0.57999882    -0.14130
C1950       C  0.86512735  0.73953613  0.61158776    -0.14130
C1951       C  0.89416444  0.76523854  0.62176057     0.08020
C1952       C  0.89867129  0.79972089  0.60083816    -0.14130
H1953       H  0.88233274  0.83132377  0.54978135     0.12010
H1954       H  0.81934879  0.72645857  0.57378636     0.12010
H1955       H  0.86031571  0.71347222  0.62809040     0.12010
H1956       H  0.91957399  0.82100959  0.60993022     0.12010
C1957       C  0.90026665  0.62780478  0.54036370    -0.14130
C1958       C  0.91018206  0.59739346  0.51440088     0.08020
C1959       C  0.88544048  0.58864265  0.98342027    -0.14130
C1960       C  0.85354138  0.61187440  0.97619324    -0.14130
C1961       C  0.84532884  0.64432339  0.99988461     0.08020
C1962       C  0.86798116  0.65138173  0.53290092    -0.14130
H1963       H  0.91904057  0.63535252  0.56417342     0.12010
H1964       H  0.89230929  0.56513459  0.96305238     0.12010
H1965       H  0.83696176  0.60626144  0.95024125     0.12010
H1966       H  0.86270641  0.67676444  0.55100702     0.12010
C1967       C  0.61112952  0.90687661  0.94112639    -0.14130
C1968       C  0.58346685  0.90921435  0.97104438     0.08020
C1969       C  0.58922705  0.88690408  0.00427429    -0.14130
C1970       C  0.62150290  0.86296704  0.00762685    -0.14130
C1971       C  0.64943167  0.86074659  0.97806081     0.08020
C1972       C  0.64397395  0.88307787  0.94471239    -0.14130
H1973       H  0.60747082  0.92349970  0.91511860     0.12010
H1974       H  0.56860719  0.88775509  0.02791427     0.12010
H1975       H  0.62464649  0.84628743  0.53374094     0.12010
H1976       H  0.66480636  0.88180465  0.92127607     0.12010
C1977       C  0.61237288  0.98202040  0.85850673    -0.14130
C1978       C  0.60893464  0.50822256  0.89009435     0.08020
C1979       C  0.64223083  0.52712961  0.90338389    -0.14130
C1980       C  0.67767993  0.52144928  0.88373968    -0.13910
C1981       C  0.68039251  0.99615787  0.85107987     0.08020
C1982       C  0.64739626  0.97585965  0.83973394    -0.14130
H1983       H  0.58765474  0.96629509  0.84781340     0.12010
H1984       H  0.64054534  0.54732611  0.92782746     0.12010
H1985       H  0.70250246  0.53768475  0.89326832     0.12010
H1986       H  0.64806489  0.95622713  0.81500168     0.12010
C1987       C  0.80329077  0.00871863  0.56085495    -0.14130
C1988       C  0.79925041  0.98273895  0.59163644     0.08020
C1989       C  0.82581617  0.95214937  0.59441725    -0.14130
C1990       C  0.85670034  0.94828347  0.56863616    -0.14130
C1991       C  0.86294864  0.97608955  0.54018212     0.08020
C1992       C  0.83527217  0.00569754  0.53553900    -0.14130
H1993       H  0.78423415  0.53363749  0.55897574     0.12010
H1994       H  0.82521843  0.93406305  0.61937001     0.12010
H1995       H  0.87835264  0.92621943  0.57402526     0.12010
H1996       H  0.84007252  0.02829583  0.51472992     0.12010
C1997       C  0.51747937  0.88250689  0.60676982    -0.14130
C1998       C  0.49330404  0.87870995  0.57483119     0.08020
C1999       C  0.98183984  0.84090030  0.56287371    -0.14130
C2000       C  0.99172295  0.80810336  0.58429183    -0.14130
C2001       C  0.51297431  0.81256005  0.61822381     0.08020
C2002       C  0.52745978  0.84975756  0.62793443    -0.14130
H2003       H  0.52805906  0.91077119  0.61587055     0.12010
H2004       H  0.96398206  0.83665024  0.53761754     0.12010
H2005       H  0.98041019  0.77992607  0.57589126     0.12010
H2006       H  0.54535380  0.85377956  0.65310941     0.12010
C2007       C  0.98955231  0.65711995  0.89372962    -0.14130
C2008       C  0.98144678  0.61771616  0.88610530     0.08020
C2009       C  0.95953052  0.60796570  0.85338204    -0.14130
C2010       C  0.94884019  0.63663339  0.82711813    -0.14130
C2011       C  0.95826726  0.67581072  0.83378394     0.08020
C2012       C  0.97784990  0.68579988  0.86800045    -0.14130
H2013       H  0.50620150  0.66566547  0.91883523     0.12010
H2014       H  0.95302886  0.57782866  0.84660373     0.12010
H2015       H  0.93655923  0.62741452  0.80008467     0.12010
H2016       H  0.48692558  0.71553666  0.87317216     0.12010
C2017       C  0.65619318  0.60507216  0.62153414    -0.14050
C2018       C  0.68032890  0.58874995  0.64009638    -0.15610
C2019       C  0.60506210  0.65068477  0.62829710    -0.14050
C2020       C  0.58902902  0.67193532  0.65178069    -0.15610
C2021       C  0.65777349  0.66763968  0.54672799    -0.14050
C2022       C  0.64231826  0.64698930  0.56973948    -0.15610
C2023       C  0.57761701  0.57415877  0.56528616    -0.14050
C2024       C  0.59906819  0.59536166  0.58328128    -0.15610
C2025       C  0.92623871  0.92204834  0.89176533    -0.14050
C2026       C  0.90259383  0.90344727  0.87454827    -0.15610
C2027       C  0.84159447  0.82551017  0.89367771    -0.14050
C2028       C  0.86023355  0.84847660  0.87594706    -0.15610
C2029       C  0.84968255  0.89780087  0.83043378    -0.14050
C2030       C  0.82337900  0.91272793  0.81385319    -0.15610
C2031       C  0.90442077  0.85616411  0.82550211    -0.14050
C2032       C  0.92595975  0.83572119  0.80732440    -0.15610
loop_ 
_geom_bond_atom_site_label_1 
_geom_bond_atom_site_label_2 
_geom_bond_distance 
_geom_bond_site_symmetry_2 
_ccdc_geom_bond_type 
C1          C248   1.454       .  S
C1          C250   1.455       .  S
C1          C251   1.456       .  S
C1          C253   1.438       .  S
C2          C239   1.460       .  S
C2          C241   1.473       .  S
C2          C244   1.460       .  S
C2          C246   1.478       .  S
O3           C11   1.263       .  A
O3        Co1039   1.971       .  S
O4           C12   1.273       .  A
O4         Co532   2.025       .  S
O5           C13   1.264       .  A
O5          Co25   1.992       .  S
O6           C14   1.272       .  A
O6          Co26   1.913       .  S
O7          C267   1.263       .  A
O7          Co24   1.993       .  S
O8           C14   1.298       .  A
O8        Co1547   2.090       .  S
O9           C12   1.255   1_556  A
O9         Co280   1.960       .  S
O10          C11   1.264       .  A
O10         Co25   1.980       .  S
C11         C247   1.423       .  S
C12         C180   1.477       .  S
C13         O261   1.263       .  A
C13         C467   1.479       .  S
C14         C230   1.484       .  S
O15          C28   1.277       .  A
O15        Co531   1.893       .  S
O16        C1045   1.319       .  A
O16         Co24   2.150       .  S
O17          C30   1.246       .  A
O17       Co1041   1.984   1_455  S
O18          C31   1.267       .  A
O18       Co1296   1.991   1_554  S
O19        C1047   1.270       .  A
O19        Co532   2.000       .  S
O20          C30   1.260       .  A
O20         Co23   2.042       .  S
O21          C28   1.307       .  A
O21       Co1042   2.109       .  S
O22         C283   1.266       .  A
O22       Co1041   1.855       .  S
Co23       O1019   1.971   1_455  S
Co23       O1532   2.090   1_455  S
Co23        O523   1.893       .  S
Co23       O1043   2.023   1_455  S
Co24        O512   2.025       .  S
Co24        O527   2.000       .  S
Co24        O281   2.117   1_554  S
Co25       O1033   1.984       .  S
Co25       O1038   1.855       .  S
Co25         O27   1.864       .  S
Co26        O263   1.960       .  S
Co26       O1288   1.991       .  S
Co26       O1037   2.109       .  S
Co26        O535   1.996       .  S
O27       Co1039   2.023       .  S
O27        Co278   2.117       .  S
O27        Co534   1.996       .  S
C28         C200   1.491       .  S
C29        O1032   1.319       .  A
C29         O276   1.266       .  A
C29         C220   1.485       .  S
C30         C190   1.490       .  S
C31        O1035   1.270       .  A
C31         C245   1.446       .  S
O32          C40   1.262       .  A
O32         Co52   1.956       .  S
O33          C41   1.237       .  A
O33         Co53   1.966       .  S
O34          C42   1.304       .  A
O34         Co54   2.096       .  S
O35          C43   1.276       .  A
O35         Co55   1.999       .  S
O36          C42   1.277       .  A
O36         Co53   1.909       .  S
O37          C43   1.278       .  A
O37         Co52   2.009       .  S
O38          C41   1.261       .  A
O38         Co55   2.026       .  S
O39          C40   1.272       .  A
O39         Co54   2.004       .  S
C40         C249   1.422       .  S
C41         C163   1.476       .  S
C42         C150   1.490       .  S
C43         C193   1.490       .  S
O44          C57   1.267       .  A
O44        Co306   1.984   1_554  S
O45          C58   1.298       .  A
O45         Co53   2.094       .  S
O46          C59   1.246       .  A
O46         Co54   1.949       .  S
O47          C60   1.273       .  A
O47        Co309   1.848       .  S
O48          C60   1.310   1_556  A
O48        Co307   2.122       .  S
O49         C313   1.270       .  A
O49        Co306   2.042   1_554  S
O50          C57   1.274       .  A
O50        Co309   2.003       .  S
O51          C58   1.268       .  A
O51         Co54   1.906       .  S
Co52        O298   1.984       .  S
Co52        O303   2.042       .  S
Co52         O56   2.030       .  S
Co53        O302   2.122       .  S
Co53         O56   2.034       .  S
Co54         O56   1.980       .  S
Co55        O301   1.848       .  S
Co55        O304   2.003       .  S
Co55         O56   1.900       .  S
C57         C140   1.472       .  S
C58         C183   1.472       .  S
C59         O303   1.270       .  A
C59         C424   1.484       .  S
C60         C243   1.426       .  S
O61          C69   1.237       .  A
O61         Co81   1.952       .  S
O62          C70   1.258       .  A
O62         Co82   1.941       .  S
O63          C71   1.290       .  A
O63         Co83   2.087       .  S
O64          C72   1.270       .  A
O64         Co84   2.007       .  S
O65          C71   1.264       .  A
O65         Co82   1.893       .  S
O66          C72   1.258       .  A
O66         Co81   1.978       .  S
O67        C1086   1.286       .  A
O67         Co84   2.058       .  S
O68          C69   1.247       .  A
O68       Co1099   1.983       .  S
C69         C254   1.406       .  S
C70        O1083   1.286       .  A
C70         C223   1.482       .  S
C71         C130   1.456       .  S
C72         C173   1.468       .  S
O73          C86   1.266       .  A
O73         Co81   1.990       .  S
O74          C87   1.303       .  A
O74         Co82   2.126       .  S
O75          C88   1.256       .  A
O75       Co1099   1.942       .  S
O76          C89   1.248       .  A
O76       Co1100   1.961   1_455  S
O77          C89   1.260       .  A
O77         Co82   2.015       .  S
O78          C88   1.289       .  A
O78         Co81   2.081       .  S
O79          C86   1.268       .  A
O79         Co84   1.990       .  S
O80          C87   1.250       .  A
O80         Co83   1.863       .  S
Co81         O85   2.018       .  S
Co82       O1101   2.035   1_455  S
Co83       O1084   1.983   1_455  S
Co83       O1091   1.942   1_455  S
Co83       O1101   1.998   1_455  S
Co84       O1092   1.961       .  S
Co84         O85   2.026       .  S
O85       Co1098   2.035       .  S
O85       Co1099   1.998       .  S
C86         C120   1.478       .  S
C87         C160   1.475       .  S
C88         C233   1.476       .  S
C89         C242   1.440       .  S
O90          C98   1.289       .  A
O90        Co618   2.085       .  S
O91         C607   1.280       .  A
O91        Co111   2.061       .  S
O92         C100   1.274       .  A
O92        Co112   1.990       .  S
O93         C101   1.248       .  A
O93        Co113   1.961       .  S
O94         C100   1.274       .  A
O94        Co111   2.002       .  S
O95         C101   1.267       .  A
O95        Co110   2.036       .  S
O96          C99   1.257   1_545  A
O96        Co113   1.945       .  S
O97          C98   1.266       .  A
O97        Co112   1.893       .  S
C98         C252   1.425       .  S
C99         O599   1.280       .  A
C99         C718   1.482       .  S
C100        C143   1.474       .  S
C101        C123   1.477       .  S
O102        C115   1.260       .  A
O102       Co110   1.956       .  S
O103        C116   1.264       .  A
O103       Co111   1.994       .  S
O104        C117   1.293       .  A
O104       Co112   2.104       .  S
O105        C118   1.270       .  A
O105       Co113   2.020       .  S
O106        C118   1.254       .  A
O106       Co619   1.948   1_545  S
O107        C117   1.270       .  A
O107       Co618   1.926       .  S
O108        C115   1.282       .  A
O108       Co113   2.065       .  S
O109        C116   1.262       .  A
O109       Co112   1.975       .  S
Co110       O598   2.085   1_545  S
Co110       O615   1.926       .  S
Co110       O622   2.022   1_545  S
Co111       O614   1.948       .  S
Co111       O114   2.037       .  S
Co112       O114   1.990       .  S
Co113       O622   2.032   1_545  S
O114       Co618   2.022       .  S
O114       Co621   2.032       .  S
C115        C153   1.494       .  S
C116        C133   1.469       .  S
C117        C203   1.495       .  S
C118        C240   1.426       .  S
C119        C120   1.409       .  A
C119        C124   1.396       .  A
C119        H125   1.083       .  S
C120        C121   1.402       .  A
C121        C122   1.401       .  A
C121        H126   1.083       .  S
C122        C123   1.409       .  A
C122        H127   1.083       .  S
C123        C124   1.399       .  A
C124        H128   1.079       .  S
C129        C130   1.397       .  A
C129        C134   1.386       .  A
C129        H135   1.084       .  S
C130        C131   1.403       .  A
C131        C132   1.403       .  A
C131        H136   1.081       .  S
C132        C133   1.405       .  A
C132        H137   1.083       .  S
C133        C134   1.404       .  A
C134        H138   1.084       .  S
C139        C140   1.399       .  A
C139        C144   1.401       .  A
C139        H145   1.083       .  S
C140        C141   1.407       .  A
C141        C142   1.395       .  A
C141        H146   1.073       .  S
C142        C143   1.392       .  A
C142        H147   1.077       .  S
C143        C144   1.410       .  A
C144        H148   1.084       .  S
C149        C150   1.405       .  A
C149        C154   1.393       .  A
C149        H155   1.083       .  S
C150        C151   1.408       .  A
C151        C152   1.412       .  A
C151        H156   1.083       .  S
C152        C153   1.410       .  A
C152        H157   1.083       .  S
C153        C154   1.407       .  A
C154        H158   1.083       .  S
C159        C160   1.414       .  A
C159        C164   1.391       .  A
C159        H165   1.083       .  S
C160        C161   1.397       .  A
C161        C162   1.402       .  A
C161        H166   1.083       .  S
C162        C163   1.416       .  A
C162        H167   1.083       .  S
C163        C164   1.394       .  A
C164        H168   1.083       .  S
C169        C170   1.406       .  A
C169        C174   1.411       .  A
C169        H175   1.083       .  S
C170        C313   1.484       .  S
C170        C171   1.410       .  A
C171        C172   1.383       .  A
C171        H176   1.083       .  S
C172        C173   1.391       .  A
C172        H177   1.084       .  S
C173        C174   1.409       .  A
C174        H178   1.080       .  S
C179        C180   1.402       .  A
C179        C184   1.409       .  A
C179        H185   1.083       .  S
C180        C435   1.408   1_554  A
C181        C182   1.390       .  A
C181        C434   1.408       .  A
C181        H186   1.084       .  S
C182        C183   1.396       .  A
C182        H187   1.084       .  S
C183        C438   1.409       .  A
C184        C437   1.409   1_554  A
C184        H188   1.076       .  S
C189        C190   1.408       .  A
C189        C194   1.409       .  A
C189        H195   1.081       .  S
C190        C191   1.407       .  A
C191        C192   1.395       .  A
C191        H196   1.083       .  S
C192        C193   1.405       .  A
C192        H451   1.083       .  S
C193        C194   1.409       .  A
C194        H198   1.083       .  S
H197        C446   1.083       .  S
C199        C204   1.390       .  A
C199        C708   1.403       .  A
C199        H205   1.084       .  S
C200        C201   1.409       .  A
C200        C707   1.403   1_545  A
C201        C202   1.415       .  A
C201        H206   1.082       .  S
C202        C711   1.411   1_545  A
C202        H207   1.083       .  S
C203        C204   1.404       .  A
C203        C710   1.411       .  A
C204        H208   1.077       .  S
C209        C210   1.408       .  A
C209        C214   1.413       .  A
C209        H723   1.083       .  S
C210        C607   1.482       .  S
C210        C211   1.400       .  A
C211        C212   1.395       .  A
C211        H216   1.072       .  S
C212        C213   1.401       .  A
C212        H217   1.085       .  S
C213        C267   1.479       .  S
C213        C214   1.408       .  A
C214        H218   1.081       .  S
H215        C717   1.083       .  S
C219        C220   1.397   1_455  A
C219        C224   1.397       .  A
C219        H225   1.083       .  S
C220       C1237   1.416       .  A
C221        C222   1.402       .  A
C221       C1236   1.416       .  A
C221        H226   1.083       .  S
C222       C1239   1.396       .  A
C222        H227   1.083       .  S
C223        C224   1.413       .  A
C223       C1238   1.396   1_455  A
C224        H228   1.080       .  S
C229        C230   1.405       .  A
C229        C234   1.400       .  A
C229       H1251   1.083       .  S
C230        C231   1.404       .  A
C231        C232   1.402       .  A
C231        H236   1.083       .  S
C232        C233   1.403       .  A
C232        H237   1.072       .  S
C233        C234   1.406       .  A
C234       H1254   1.084       .  S
H235       C1245   1.083   1_455  S
H238       C1250   1.084       .  S
C239        C240   1.203       .  T
C241        C242   1.210       .  T
C243        C244   1.203       .  T
C245        C246   1.213       .  T
C247        C248   1.200       .  T
C249        C250   1.200       .  T
C251        C252   1.201       .  T
C253        C254   1.190       .  T
C255        C502   1.454       .  S
C255        C504   1.455       .  S
C255        C505   1.456       .  S
C255        C507   1.438       .  S
C256        C493   1.460       .  S
C256        C495   1.473       .  S
C256        C498   1.460       .  S
C256        C500   1.478       .  S
O257        C265   1.263       .  A
O257      Co1293   1.971       .  S
O258        C266   1.273       .  A
O258       Co786   2.025       .  S
O259        C267   1.264   1_556  A
O259       Co279   1.992       .  S
O260        C268   1.272       .  A
O260       Co280   1.913       .  S
O261       Co278   1.993       .  S
O262        C268   1.298       .  A
O262      Co1801   2.090       .  S
O263        C266   1.255       .  A
O264        C265   1.264       .  A
O264       Co279   1.980       .  S
C265        C501   1.423       .  S
C266        C434   1.477       .  S
C268        C484   1.484       .  S
O269        C282   1.277       .  A
O269       Co785   1.893       .  S
O270       C1299   1.319       .  A
O270       Co278   2.150       .  S
O271        C284   1.246       .  A
O271      Co1295   1.984   1_455  S
O272        C285   1.267       .  A
O272      Co1042   1.991       .  S
O273       C1301   1.270       .  A
O273       Co786   2.000       .  S
O274        C284   1.260       .  A
O274       Co277   2.042       .  S
O275        C282   1.307       .  A
O275      Co1296   2.109       .  S
O276      Co1295   1.855   1_554  S
Co277      O1273   1.971   1_455  S
Co277      O1786   2.090   1_455  S
Co277       O777   1.893       .  S
Co277      O1297   2.023   1_455  S
Co278       O766   2.025       .  S
Co278       O781   2.000       .  S
Co279      O1287   1.984       .  S
Co279      O1292   1.855   1_556  S
Co279       O281   1.864       .  S
Co280      O1034   1.991   1_556  S
Co280      O1291   2.109       .  S
Co280       O789   1.996       .  S
O281      Co1293   2.023       .  S
O281       Co788   1.996       .  S
C282        C454   1.491       .  S
C283       O1286   1.319       .  A
C283        C474   1.485       .  S
C284        C444   1.490       .  S
C285       O1289   1.270       .  A
C285        C499   1.446       .  S
O286        C294   1.262       .  A
O286       Co306   1.956       .  S
O287        C295   1.237       .  A
O287       Co307   1.966       .  S
O288        C296   1.304       .  A
O288       Co308   2.096       .  S
O289        C297   1.276   1_554  A
O289       Co309   1.999       .  S
O290        C296   1.277       .  A
O290       Co307   1.909       .  S
O291        C297   1.278       .  A
O291       Co306   2.009       .  S
O292        C295   1.261       .  A
O292       Co309   2.026   1_556  S
O293        C294   1.272       .  A
O293       Co308   2.004       .  S
C294        C503   1.422       .  S
C295        C417   1.476       .  S
C296        C404   1.490       .  S
C297        C447   1.490       .  S
O298        C311   1.267       .  A
O299        C312   1.298       .  A
O299       Co307   2.094       .  S
O300        C313   1.246       .  A
O300       Co308   1.949   1_554  S
O301        C314   1.273       .  A
O302        C314   1.310       .  A
O304        C311   1.274       .  A
O305        C312   1.268       .  A
O305       Co308   1.906       .  S
Co306       O310   2.030       .  S
Co307       O310   2.034       .  S
Co308       O310   1.980       .  S
Co309       O310   1.900   1_554  S
C311        C394   1.472       .  S
C312        C437   1.472       .  S
C314        C497   1.426       .  S
O315        C323   1.237       .  A
O315       Co335   1.952       .  S
O316        C324   1.258       .  A
O316       Co336   1.941       .  S
O317        C325   1.290       .  A
O317       Co337   2.087       .  S
O318        C326   1.270       .  A
O318       Co338   2.007       .  S
O319        C325   1.264       .  A
O319       Co336   1.893       .  S
O320        C326   1.258       .  A
O320       Co335   1.978       .  S
O321       C1340   1.286       .  A
O321       Co338   2.058       .  S
O322        C323   1.247       .  A
O322      Co1353   1.983       .  S
C323        C508   1.406       .  S
C324       O1337   1.286       .  A
C324        C477   1.482       .  S
C325        C384   1.456       .  S
C326        C427   1.468       .  S
O327        C340   1.266       .  A
O327       Co335   1.990       .  S
O328        C341   1.303       .  A
O328       Co336   2.126       .  S
O329        C342   1.256       .  A
O329      Co1353   1.942       .  S
O330        C343   1.248       .  A
O330      Co1354   1.961   1_455  S
O331        C343   1.260       .  A
O331       Co336   2.015       .  S
O332        C342   1.289       .  A
O332       Co335   2.081       .  S
O333        C340   1.268       .  A
O333       Co338   1.990       .  S
O334        C341   1.250       .  A
O334       Co337   1.863       .  S
Co335       O339   2.018       .  S
Co336      O1355   2.035   1_455  S
Co337      O1338   1.983   1_455  S
Co337      O1345   1.942   1_455  S
Co337      O1355   1.998   1_455  S
Co338      O1346   1.961       .  S
Co338       O339   2.026       .  S
O339      Co1352   2.035       .  S
O339      Co1353   1.998       .  S
C340        C374   1.478       .  S
C341        C414   1.475       .  S
C342        C487   1.476       .  S
C343        C496   1.440       .  S
O344        C352   1.289       .  A
O344       Co872   2.085       .  S
O345        C861   1.280       .  A
O345       Co365   2.061       .  S
O346        C354   1.274       .  A
O346       Co366   1.990       .  S
O347        C355   1.248       .  A
O347       Co367   1.961       .  S
O348        C354   1.274       .  A
O348       Co365   2.002       .  S
O349        C355   1.267       .  A
O349       Co364   2.036       .  S
O350        C353   1.257   1_545  A
O350       Co367   1.945       .  S
O351        C352   1.266       .  A
O351       Co366   1.893       .  S
C352        C506   1.425       .  S
C353        O853   1.280       .  A
C353        C972   1.482       .  S
C354        C397   1.474       .  S
C355        C377   1.477       .  S
O356        C369   1.260       .  A
O356       Co364   1.956       .  S
O357        C370   1.264       .  A
O357       Co365   1.994       .  S
O358        C371   1.293       .  A
O358       Co366   2.104       .  S
O359        C372   1.270       .  A
O359       Co367   2.020       .  S
O360        C372   1.254       .  A
O360       Co873   1.948   1_545  S
O361        C371   1.270       .  A
O361       Co872   1.926       .  S
O362        C369   1.282       .  A
O362       Co367   2.065       .  S
O363        C370   1.262       .  A
O363       Co366   1.975       .  S
Co364       O852   2.085   1_545  S
Co364       O869   1.926       .  S
Co364       O876   2.022   1_545  S
Co365       O868   1.948       .  S
Co365       O368   2.037       .  S
Co366       O368   1.990       .  S
Co367       O876   2.032   1_545  S
O368       Co872   2.022       .  S
O368       Co875   2.032       .  S
C369        C407   1.494       .  S
C370        C387   1.469       .  S
C371        C457   1.495       .  S
C372        C494   1.426       .  S
C373        C374   1.409       .  A
C373        C378   1.396       .  A
C373        H379   1.083       .  S
C374        C375   1.402       .  A
C375        C376   1.401       .  A
C375        H380   1.083       .  S
C376        C377   1.409       .  A
C376        H381   1.083       .  S
C377        C378   1.399       .  A
C378        H382   1.079       .  S
C383        C384   1.397       .  A
C383        C388   1.386       .  A
C383        H389   1.084       .  S
C384        C385   1.403       .  A
C385        C386   1.403       .  A
C385        H390   1.081       .  S
C386        C387   1.405       .  A
C386        H391   1.083       .  S
C387        C388   1.404       .  A
C388        H392   1.084       .  S
C393        C394   1.399       .  A
C393        C398   1.401       .  A
C393        H399   1.083       .  S
C394        C395   1.407       .  A
C395        C396   1.395       .  A
C395        H400   1.073       .  S
C396        C397   1.392       .  A
C396        H401   1.077       .  S
C397        C398   1.410       .  A
C398        H402   1.084       .  S
C403        C404   1.405       .  A
C403        C408   1.393       .  A
C403        H409   1.083       .  S
C404        C405   1.408       .  A
C405        C406   1.412       .  A
C405        H410   1.083       .  S
C406        C407   1.410       .  A
C406        H411   1.083       .  S
C407        C408   1.407       .  A
C408        H412   1.083       .  S
C413        C414   1.414       .  A
C413        C418   1.391       .  A
C413        H419   1.083       .  S
C414        C415   1.397       .  A
C415        C416   1.402       .  A
C415        H420   1.083       .  S
C416        C417   1.416       .  A
C416        H421   1.083       .  S
C417        C418   1.394       .  A
C418        H422   1.083       .  S
C423        C424   1.406       .  A
C423        C428   1.411       .  A
C423        H429   1.083       .  S
C424        C425   1.410       .  A
C425        C426   1.383       .  A
C425        H430   1.083       .  S
C426        C427   1.391       .  A
C426        H431   1.084       .  S
C427        C428   1.409       .  A
C428        H432   1.080       .  S
C433        C434   1.402       .  A
C433        C438   1.409       .  A
C433        H439   1.083       .  S
C435        C436   1.390       .  A
C435        H440   1.084       .  S
C436        C437   1.396       .  A
C436        H441   1.084       .  S
C438        H442   1.076       .  S
C443        C444   1.408       .  A
C443        C448   1.409       .  A
C443        H449   1.081       .  S
C444        C445   1.407   1_556  A
C445        C446   1.395       .  A
C445        H450   1.083       .  S
C446        C447   1.405   1_554  A
C447        C448   1.409       .  A
C448        H452   1.083       .  S
C453        C962   1.403       .  A
C453        C458   1.390       .  A
C453        H459   1.084       .  S
C454        C961   1.403   1_545  A
C454        C455   1.409       .  A
C455        C456   1.415       .  A
C455        H460   1.082       .  S
C456        C965   1.411   1_545  A
C456        H461   1.083       .  S
C457        C964   1.411       .  A
C457        C458   1.404       .  A
C458        H462   1.077       .  S
C463        C464   1.408       .  A
C463        C468   1.413       .  A
C463        H977   1.083       .  S
C464        C861   1.482       .  S
C464        C465   1.400       .  A
C465        C466   1.395       .  A
C465        H470   1.072       .  S
C466        C467   1.401       .  A
C466        H471   1.085       .  S
C467        C468   1.408       .  A
C468        H472   1.081       .  S
H469        C971   1.083       .  S
C473        C474   1.397   1_455  A
C473        C478   1.397       .  A
C473        H479   1.083       .  S
C474       C1491   1.416       .  A
C475       C1490   1.416       .  A
C475        C476   1.402       .  A
C475        H480   1.083       .  S
C476       C1493   1.396       .  A
C476        H481   1.083       .  S
C477       C1492   1.396   1_455  A
C477        C478   1.413       .  A
C478        H482   1.080       .  S
C483        C484   1.405       .  A
C483        C488   1.400       .  A
C483       H1505   1.083       .  S
C484        C485   1.404       .  A
C485        C486   1.402       .  A
C485        H490   1.083       .  S
C486        C487   1.403       .  A
C486        H491   1.072       .  S
C487        C488   1.406       .  A
C488       H1508   1.084       .  S
H489       C1499   1.083   1_455  S
H492       C1504   1.084       .  S
C493        C494   1.203       .  T
C495        C496   1.210       .  T
C497        C498   1.203       .  T
C499        C500   1.213       .  T
C501        C502   1.200       .  T
C503        C504   1.200       .  T
C505        C506   1.201       .  T
C507        C508   1.190       .  T
C509        C756   1.454       .  S
C509        C758   1.455       .  S
C509        C759   1.456       .  S
C509        C761   1.438       .  S
C510        C747   1.460       .  S
C510        C749   1.473       .  S
C510        C752   1.460       .  S
C510        C754   1.478       .  S
O511        C519   1.263       .  A
O511      Co1547   1.971   1_565  S
O512        C520   1.273       .  A
O513        C521   1.264       .  A
O513       Co533   1.992       .  S
O514        C522   1.272       .  A
O514       Co534   1.913       .  S
O515        C775   1.263       .  A
O515       Co532   1.993   1_565  S
O516        C522   1.298       .  A
O516      Co1039   2.090       .  S
O517        C520   1.255   1_556  A
O517       Co788   1.960       .  S
O518        C519   1.264       .  A
O518       Co533   1.980       .  S
C519        C755   1.423       .  S
C520        C688   1.477       .  S
C521        O769   1.263       .  A
C521        C975   1.479       .  S
C522        C738   1.484       .  S
O523        C536   1.277       .  A
O524       C1553   1.319       .  A
O524       Co532   2.150   1_565  S
O525        C538   1.246       .  A
O525      Co1549   1.984   1_455  S
O526        C539   1.267       .  A
O526      Co1804   1.991   1_554  S
O527       C1555   1.270       .  A
O528        C538   1.260       .  A
O528       Co531   2.042   1_565  S
O529        C536   1.307       .  A
O529      Co1550   2.109       .  S
O530        C791   1.266       .  A
O530      Co1549   1.855       .  S
Co531      O1527   1.971   1_445  S
Co531      O1024   2.090   1_455  S
Co531      O1551   2.023   1_455  S
Co532       O789   2.117   1_554  S
Co533      O1541   1.984       .  S
Co533      O1546   1.855       .  S
Co533       O535   1.864   1_565  S
Co534       O771   1.960       .  S
Co534      O1796   1.991       .  S
Co534      O1545   2.109       .  S
O535      Co1547   2.023       .  S
O535       Co786   2.117       .  S
C536        C708   1.491       .  S
C537       O1540   1.319       .  A
C537        O784   1.266       .  A
C537        C728   1.485       .  S
C538        C698   1.490       .  S
C539       O1543   1.270       .  A
C539        C753   1.446       .  S
O540        C548   1.262       .  A
O540       Co560   1.956       .  S
O541        C549   1.237       .  A
O541       Co561   1.966       .  S
O542        C550   1.304       .  A
O542       Co562   2.096       .  S
O543        C551   1.276       .  A
O543       Co563   1.999       .  S
O544        C550   1.277       .  A
O544       Co561   1.909       .  S
O545        C551   1.278       .  A
O545       Co560   2.009       .  S
O546        C549   1.261       .  A
O546       Co563   2.026       .  S
O547        C548   1.272       .  A
O547       Co562   2.004       .  S
C548        C757   1.422       .  S
C549        C671   1.476       .  S
C550        C658   1.490       .  S
C551        C701   1.490       .  S
O552        C565   1.267       .  A
O552       Co814   1.984   1_554  S
O553        C566   1.298       .  A
O553       Co561   2.094       .  S
O554        C567   1.246       .  A
O554       Co562   1.949       .  S
O555        C568   1.273       .  A
O555       Co817   1.848       .  S
O556        C568   1.310   1_556  A
O556       Co815   2.122       .  S
O557        C821   1.270       .  A
O557       Co814   2.042   1_554  S
O558        C565   1.274       .  A
O558       Co817   2.003       .  S
O559        C566   1.268       .  A
O559       Co562   1.906       .  S
Co560       O806   1.984       .  S
Co560       O811   2.042       .  S
Co560       O564   2.030       .  S
Co561       O810   2.122       .  S
Co561       O564   2.034       .  S
Co562       O564   1.980       .  S
Co563       O809   1.848       .  S
Co563       O812   2.003       .  S
Co563       O564   1.900       .  S
C565        C648   1.472       .  S
C566        C691   1.472       .  S
C567        O811   1.270       .  A
C567        C932   1.484       .  S
C568        C751   1.426       .  S
O569        C577   1.237       .  A
O569       Co589   1.952       .  S
O570        C578   1.258       .  A
O570       Co590   1.941       .  S
O571        C579   1.290       .  A
O571       Co591   2.087       .  S
O572        C580   1.270       .  A
O572       Co592   2.007       .  S
O573        C579   1.264       .  A
O573       Co590   1.893       .  S
O574        C580   1.258       .  A
O574       Co589   1.978       .  S
O575       C1594   1.286       .  A
O575       Co592   2.058       .  S
O576        C577   1.247       .  A
O576      Co1607   1.983       .  S
C577        C762   1.406       .  S
C578       O1591   1.286       .  A
C578        C731   1.482       .  S
C579        C638   1.456       .  S
C580        C681   1.468       .  S
O581        C594   1.266       .  A
O581       Co589   1.990       .  S
O582        C595   1.303       .  A
O582       Co590   2.126       .  S
O583        C596   1.256       .  A
O583      Co1607   1.942       .  S
O584        C597   1.248       .  A
O584      Co1608   1.961   1_455  S
O585        C597   1.260       .  A
O585       Co590   2.015       .  S
O586        C596   1.289       .  A
O586       Co589   2.081       .  S
O587        C594   1.268       .  A
O587       Co592   1.990       .  S
O588        C595   1.250       .  A
O588       Co591   1.863       .  S
Co589       O593   2.018       .  S
Co590      O1609   2.035   1_455  S
Co591      O1592   1.983   1_455  S
Co591      O1599   1.942   1_455  S
Co591      O1609   1.998   1_455  S
Co592      O1600   1.961       .  S
Co592       O593   2.026       .  S
O593      Co1606   2.035       .  S
O593      Co1607   1.998       .  S
C594        C628   1.478       .  S
C595        C668   1.475       .  S
C596        C741   1.476       .  S
C597        C750   1.440       .  S
O598        C606   1.289       .  A
O599       Co619   2.061       .  S
O600        C608   1.274       .  A
O600       Co620   1.990       .  S
O601        C609   1.248       .  A
O601       Co621   1.961       .  S
O602        C608   1.274       .  A
O602       Co619   2.002       .  S
O603        C609   1.267       .  A
O603       Co618   2.036       .  S
O604        C607   1.257       .  A
O604       Co621   1.945       .  S
O605        C606   1.266       .  A
O605       Co620   1.893       .  S
C606        C760   1.425       .  S
C608        C651   1.474       .  S
C609        C631   1.477       .  S
O610        C623   1.260       .  A
O610       Co618   1.956       .  S
O611        C624   1.264       .  A
O611       Co619   1.994       .  S
O612        C625   1.293       .  A
O612       Co620   2.104       .  S
O613        C626   1.270       .  A
O613       Co621   2.020       .  S
O614        C626   1.254       .  A
O615        C625   1.270   1_545  A
O616        C623   1.282       .  A
O616       Co621   2.065       .  S
O617        C624   1.262       .  A
O617       Co620   1.975       .  S
Co619       O622   2.037       .  S
Co620       O622   1.990       .  S
C623        C661   1.494       .  S
C624        C641   1.469       .  S
C625        C711   1.495       .  S
C626        C748   1.426       .  S
C627        C628   1.409       .  A
C627        C632   1.396       .  A
C627        H633   1.083       .  S
C628        C629   1.402       .  A
C629        C630   1.401       .  A
C629        H634   1.083       .  S
C630        C631   1.409       .  A
C630        H635   1.083       .  S
C631        C632   1.399       .  A
C632        H636   1.079       .  S
C637        C638   1.397       .  A
C637        C642   1.386       .  A
C637        H643   1.084       .  S
C638        C639   1.403       .  A
C639        C640   1.403       .  A
C639        H644   1.081       .  S
C640        C641   1.405       .  A
C640        H645   1.083       .  S
C641        C642   1.404       .  A
C642        H646   1.084       .  S
C647        C648   1.399       .  A
C647        C652   1.401       .  A
C647        H653   1.083       .  S
C648        C649   1.407       .  A
C649        C650   1.395       .  A
C649        H654   1.073       .  S
C650        C651   1.392       .  A
C650        H655   1.077       .  S
C651        C652   1.410       .  A
C652        H656   1.084       .  S
C657        C658   1.405       .  A
C657        C662   1.393       .  A
C657        H663   1.083       .  S
C658        C659   1.408       .  A
C659        C660   1.412       .  A
C659        H664   1.083       .  S
C660        C661   1.410       .  A
C660        H665   1.083       .  S
C661        C662   1.407       .  A
C662        H666   1.083       .  S
C667        C668   1.414       .  A
C667        C672   1.391       .  A
C667        H673   1.083       .  S
C668        C669   1.397       .  A
C669        C670   1.402       .  A
C669        H674   1.083       .  S
C670        C671   1.416       .  A
C670        H675   1.083       .  S
C671        C672   1.394       .  A
C672        H676   1.083       .  S
C677        C678   1.406       .  A
C677        C682   1.411       .  A
C677        H683   1.083       .  S
C678        C821   1.484       .  S
C678        C679   1.410       .  A
C679        C680   1.383       .  A
C679        H684   1.083       .  S
C680        C681   1.391       .  A
C680        H685   1.084       .  S
C681        C682   1.409       .  A
C682        H686   1.080       .  S
C687        C688   1.402       .  A
C687        C692   1.409       .  A
C687        H693   1.083       .  S
C688        C943   1.408   1_554  A
C689        C942   1.408       .  A
C689        C690   1.390       .  A
C689        H694   1.084       .  S
C690        C691   1.396       .  A
C690        H695   1.084       .  S
C691        C946   1.409       .  A
C692        C945   1.409   1_554  A
C692        H696   1.076       .  S
C697        C698   1.408       .  A
C697        C702   1.409       .  A
C697        H703   1.081       .  S
C698        C699   1.407       .  A
C699        C700   1.395       .  A
C699        H704   1.083       .  S
C700        C701   1.405       .  A
C700        H959   1.083       .  S
C701        C702   1.409       .  A
C702        H706   1.083       .  S
H705        C954   1.083       .  S
C707        C712   1.390       .  A
C707        H713   1.084       .  S
C708        C709   1.409       .  A
C709        C710   1.415       .  A
C709        H714   1.082       .  S
C710        H715   1.083       .  S
C711        C712   1.404       .  A
C712        H716   1.077       .  S
C717        C718   1.408   1_545  A
C717        C722   1.413       .  A
C718        C719   1.400       .  A
C719        C720   1.395       .  A
C719        H724   1.072       .  S
C720        C721   1.401       .  A
C720        H725   1.085       .  S
C721        C775   1.479       .  S
C721        C722   1.408   1_565  A
C722        H726   1.081       .  S
C727        C728   1.397   1_455  A
C727        C732   1.397       .  A
C727        H733   1.083       .  S
C728       C1745   1.416       .  A
C729       C1744   1.416       .  A
C729        C730   1.402       .  A
C729        H734   1.083       .  S
C730       C1747   1.396       .  A
C730        H735   1.083       .  S
C731       C1746   1.396   1_455  A
C731        C732   1.413       .  A
C732        H736   1.080       .  S
C737        C738   1.405       .  A
C737        C742   1.400       .  A
C737       H1759   1.083       .  S
C738        C739   1.404       .  A
C739        C740   1.402       .  A
C739        H744   1.083       .  S
C740        C741   1.403       .  A
C740        H745   1.072       .  S
C741        C742   1.406       .  A
C742       H1762   1.084       .  S
H743       C1753   1.083   1_455  S
H746       C1758   1.084       .  S
C747        C748   1.203       .  T
C749        C750   1.210       .  T
C751        C752   1.203       .  T
C753        C754   1.213       .  T
C755        C756   1.200       .  T
C757        C758   1.200       .  T
C759        C760   1.201       .  T
C761        C762   1.190       .  T
C763       C1010   1.454       .  S
C763       C1012   1.455       .  S
C763       C1013   1.456       .  S
C763       C1015   1.438       .  S
C764       C1001   1.460       .  S
C764       C1003   1.473       .  S
C764       C1006   1.460       .  S
C764       C1008   1.478       .  S
O765        C773   1.263       .  A
O765      Co1801   1.971   1_565  S
O766        C774   1.273       .  A
O767        C775   1.264   1_556  A
O767       Co787   1.992       .  S
O768        C776   1.272       .  A
O768       Co788   1.913       .  S
O769       Co786   1.993   1_565  S
O770        C776   1.298       .  A
O770      Co1293   2.090       .  S
O771        C774   1.255       .  A
O772        C773   1.264       .  A
O772       Co787   1.980       .  S
C773       C1009   1.423       .  S
C774        C942   1.477       .  S
C776        C992   1.484       .  S
O777        C790   1.277       .  A
O778       C1807   1.319       .  A
O778       Co786   2.150   1_565  S
O779        C792   1.246       .  A
O779      Co1803   1.984   1_455  S
O780        C793   1.267       .  A
O780      Co1550   1.991       .  S
O781       C1809   1.270       .  A
O782        C792   1.260       .  A
O782       Co785   2.042   1_565  S
O783        C790   1.307       .  A
O783      Co1804   2.109       .  S
O784      Co1803   1.855   1_554  S
Co785      O1781   1.971   1_445  S
Co785      O1278   2.090   1_455  S
Co785      O1805   2.023   1_455  S
Co787      O1795   1.984       .  S
Co787      O1800   1.855   1_556  S
Co787       O789   1.864   1_565  S
Co788      O1542   1.991   1_556  S
Co788      O1799   2.109       .  S
O789      Co1801   2.023       .  S
C790        C962   1.491       .  S
C791       O1794   1.319       .  A
C791        C982   1.485       .  S
C792        C952   1.490       .  S
C793       O1797   1.270       .  A
C793       C1007   1.446       .  S
O794        C802   1.262       .  A
O794       Co814   1.956       .  S
O795        C803   1.237       .  A
O795       Co815   1.966       .  S
O796        C804   1.304       .  A
O796       Co816   2.096       .  S
O797        C805   1.276   1_554  A
O797       Co817   1.999       .  S
O798        C804   1.277       .  A
O798       Co815   1.909       .  S
O799        C805   1.278       .  A
O799       Co814   2.009       .  S
O800        C803   1.261       .  A
O800       Co817   2.026   1_556  S
O801        C802   1.272       .  A
O801       Co816   2.004       .  S
C802       C1011   1.422       .  S
C803        C925   1.476       .  S
C804        C912   1.490       .  S
C805        C955   1.490       .  S
O806        C819   1.267       .  A
O807        C820   1.298       .  A
O807       Co815   2.094       .  S
O808        C821   1.246       .  A
O808       Co816   1.949   1_554  S
O809        C822   1.273       .  A
O810        C822   1.310       .  A
O812        C819   1.274       .  A
O813        C820   1.268       .  A
O813       Co816   1.906       .  S
Co814       O818   2.030       .  S
Co815       O818   2.034       .  S
Co816       O818   1.980       .  S
Co817       O818   1.900   1_554  S
C819        C902   1.472       .  S
C820        C945   1.472       .  S
C822       C1005   1.426       .  S
O823        C831   1.237       .  A
O823       Co843   1.952       .  S
O824        C832   1.258       .  A
O824       Co844   1.941       .  S
O825        C833   1.290       .  A
O825       Co845   2.087       .  S
O826        C834   1.270       .  A
O826       Co846   2.007       .  S
O827        C833   1.264       .  A
O827       Co844   1.893       .  S
O828        C834   1.258       .  A
O828       Co843   1.978       .  S
O829       C1848   1.286       .  A
O829       Co846   2.058       .  S
O830        C831   1.247       .  A
O830      Co1861   1.983       .  S
C831       C1016   1.406       .  S
C832       O1845   1.286       .  A
C832        C985   1.482       .  S
C833        C892   1.456       .  S
C834        C935   1.468       .  S
O835        C848   1.266       .  A
O835       Co843   1.990       .  S
O836        C849   1.303       .  A
O836       Co844   2.126       .  S
O837        C850   1.256       .  A
O837      Co1861   1.942       .  S
O838        C851   1.248       .  A
O838      Co1862   1.961   1_455  S
O839        C851   1.260       .  A
O839       Co844   2.015       .  S
O840        C850   1.289       .  A
O840       Co843   2.081       .  S
O841        C848   1.268       .  A
O841       Co846   1.990       .  S
O842        C849   1.250       .  A
O842       Co845   1.863       .  S
Co843       O847   2.018       .  S
Co844      O1863   2.035   1_455  S
Co845      O1846   1.983   1_455  S
Co845      O1853   1.942   1_455  S
Co845      O1863   1.998   1_455  S
Co846      O1854   1.961       .  S
Co846       O847   2.026       .  S
O847      Co1860   2.035       .  S
O847      Co1861   1.998       .  S
C848        C882   1.478       .  S
C849        C922   1.475       .  S
C850        C995   1.476       .  S
C851       C1004   1.440       .  S
O852        C860   1.289       .  A
O853       Co873   2.061       .  S
O854        C862   1.274       .  A
O854       Co874   1.990       .  S
O855        C863   1.248       .  A
O855       Co875   1.961       .  S
O856        C862   1.274       .  A
O856       Co873   2.002       .  S
O857        C863   1.267       .  A
O857       Co872   2.036       .  S
O858        C861   1.257       .  A
O858       Co875   1.945       .  S
O859        C860   1.266       .  A
O859       Co874   1.893       .  S
C860       C1014   1.425       .  S
C862        C905   1.474       .  S
C863        C885   1.477       .  S
O864        C877   1.260       .  A
O864       Co872   1.956       .  S
O865        C878   1.264       .  A
O865       Co873   1.994       .  S
O866        C879   1.293       .  A
O866       Co874   2.104       .  S
O867        C880   1.270       .  A
O867       Co875   2.020       .  S
O868        C880   1.254       .  A
O869        C879   1.270   1_545  A
O870        C877   1.282       .  A
O870       Co875   2.065       .  S
O871        C878   1.262       .  A
O871       Co874   1.975       .  S
Co873       O876   2.037       .  S
Co874       O876   1.990       .  S
C877        C915   1.494       .  S
C878        C895   1.469       .  S
C879        C965   1.495       .  S
C880       C1002   1.426       .  S
C881        C882   1.409       .  A
C881        C886   1.396       .  A
C881        H887   1.083       .  S
C882        C883   1.402       .  A
C883        C884   1.401       .  A
C883        H888   1.083       .  S
C884        C885   1.409       .  A
C884        H889   1.083       .  S
C885        C886   1.399       .  A
C886        H890   1.079       .  S
C891        C892   1.397       .  A
C891        C896   1.386       .  A
C891        H897   1.084       .  S
C892        C893   1.403       .  A
C893        C894   1.403       .  A
C893        H898   1.081       .  S
C894        C895   1.405       .  A
C894        H899   1.083       .  S
C895        C896   1.404       .  A
C896        H900   1.084       .  S
C901        C902   1.399       .  A
C901        C906   1.401       .  A
C901        H907   1.083       .  S
C902        C903   1.407       .  A
C903        C904   1.395       .  A
C903        H908   1.073       .  S
C904        C905   1.392       .  A
C904        H909   1.077       .  S
C905        C906   1.410       .  A
C906        H910   1.084       .  S
C911        C912   1.405       .  A
C911        C916   1.393       .  A
C911        H917   1.083       .  S
C912        C913   1.408       .  A
C913        C914   1.412       .  A
C913        H918   1.083       .  S
C914        C915   1.410       .  A
C914        H919   1.083       .  S
C915        C916   1.407       .  A
C916        H920   1.083       .  S
C921        C922   1.414       .  A
C921        C926   1.391       .  A
C921        H927   1.083       .  S
C922        C923   1.397       .  A
C923        C924   1.402       .  A
C923        H928   1.083       .  S
C924        C925   1.416       .  A
C924        H929   1.083       .  S
C925        C926   1.394       .  A
C926        H930   1.083       .  S
C931        C932   1.406       .  A
C931        C936   1.411       .  A
C931        H937   1.083       .  S
C932        C933   1.410       .  A
C933        C934   1.383       .  A
C933        H938   1.083       .  S
C934        C935   1.391       .  A
C934        H939   1.084       .  S
C935        C936   1.409       .  A
C936        H940   1.080       .  S
C941        C942   1.402       .  A
C941        C946   1.409       .  A
C941        H947   1.083       .  S
C943        C944   1.390       .  A
C943        H948   1.084       .  S
C944        C945   1.396       .  A
C944        H949   1.084       .  S
C946        H950   1.076       .  S
C951        C952   1.408       .  A
C951        C956   1.409       .  A
C951        H957   1.081       .  S
C952        C953   1.407   1_556  A
C953        C954   1.395       .  A
C953        H958   1.083       .  S
C954        C955   1.405   1_554  A
C955        C956   1.409       .  A
C956        H960   1.083       .  S
C961        C966   1.390       .  A
C961        H967   1.084       .  S
C962        C963   1.409       .  A
C963        C964   1.415       .  A
C963        H968   1.082       .  S
C964        H969   1.083       .  S
C965        C966   1.404       .  A
C966        H970   1.077       .  S
C971        C972   1.408   1_545  A
C971        C976   1.413       .  A
C972        C973   1.400       .  A
C973        C974   1.395       .  A
C973        H978   1.072       .  S
C974        C975   1.401       .  A
C974        H979   1.085       .  S
C975        C976   1.408   1_565  A
C976        H980   1.081       .  S
C981        C982   1.397   1_455  A
C981        C986   1.397       .  A
C981        H987   1.083       .  S
C982       C1999   1.416       .  A
C983       C1998   1.416       .  A
C983        C984   1.402       .  A
C983        H988   1.083       .  S
C984       C2001   1.396       .  A
C984        H989   1.083       .  S
C985       C2000   1.396   1_455  A
C985        C986   1.413       .  A
C986        H990   1.080       .  S
C991        C992   1.405       .  A
C991        C996   1.400       .  A
C991       H2013   1.083       .  S
C992        C993   1.404       .  A
C993        C994   1.402       .  A
C993        H998   1.083       .  S
C994        C995   1.403       .  A
C994        H999   1.072       .  S
C995        C996   1.406       .  A
C996       H2016   1.084       .  S
H997       C2007   1.083   1_455  S
H1000      C2012   1.084       .  S
C1001      C1002   1.203       .  T
C1003      C1004   1.210       .  T
C1005      C1006   1.203       .  T
C1007      C1008   1.213       .  T
C1009      C1010   1.200       .  T
C1011      C1012   1.200       .  T
C1013      C1014   1.201       .  T
C1015      C1016   1.190       .  T
C1017      C1264   1.454       .  S
C1017      C1266   1.455       .  S
C1017      C1267   1.456       .  S
C1017      C1269   1.438       .  S
C1018      C1255   1.460       .  S
C1018      C1257   1.473       .  S
C1018      C1260   1.460       .  S
C1018      C1262   1.478       .  S
O1019      C1027   1.263       .  A
O1020      C1028   1.273       .  A
O1020     Co1548   2.025       .  S
O1021      C1029   1.264       .  A
O1021     Co1041   1.992       .  S
O1022      C1030   1.272   1_455  A
O1022     Co1042   1.913       .  S
O1023      C1283   1.263       .  A
O1023     Co1040   1.993       .  S
O1024      C1030   1.298       .  A
O1025      C1028   1.255   1_556  A
O1025     Co1296   1.960   1_655  S
O1026      C1027   1.264       .  A
O1026     Co1041   1.980       .  S
C1027      C1263   1.423       .  S
C1028      C1196   1.477       .  S
C1029      O1277   1.263       .  A
C1029      C1483   1.479       .  S
C1030      C1246   1.484       .  S
O1031      C1044   1.277       .  A
O1031     Co1547   1.893       .  S
O1032     Co1040   2.150       .  S
O1033      C1046   1.246       .  A
O1034      C1047   1.267       .  A
O1035     Co1548   2.000   1_455  S
O1036      C1046   1.260       .  A
O1036     Co1039   2.042       .  S
O1037      C1044   1.307       .  A
O1038      C1299   1.266       .  A
Co1039     O1539   1.893       .  S
Co1040     O1528   2.025       .  S
Co1040     O1543   2.000   1_655  S
Co1040     O1297   2.117   1_554  S
Co1041     O1043   1.864       .  S
Co1042     O1279   1.960   1_455  S
Co1042     O1551   1.996   1_455  S
O1043     Co1294   2.117       .  S
O1043     Co1550   1.996   1_655  S
C1044      C1216   1.491       .  S
C1045      O1292   1.266       .  A
C1045      C1236   1.485       .  S
C1046      C1206   1.490       .  S
C1047      C1261   1.446       .  S
O1048      C1056   1.262       .  A
O1048     Co1068   1.956       .  S
O1049      C1057   1.237       .  A
O1049     Co1069   1.966       .  S
O1050      C1058   1.304       .  A
O1050     Co1070   2.096       .  S
O1051      C1059   1.276       .  A
O1051     Co1071   1.999       .  S
O1052      C1058   1.277       .  A
O1052     Co1069   1.909       .  S
O1053      C1059   1.278       .  A
O1053     Co1068   2.009       .  S
O1054      C1057   1.261       .  A
O1054     Co1071   2.026       .  S
O1055      C1056   1.272       .  A
O1055     Co1070   2.004       .  S
C1056      C1265   1.422       .  S
C1057      C1179   1.476       .  S
C1058      C1166   1.490       .  S
C1059      C1209   1.490       .  S
O1060      C1073   1.267       .  A
O1060     Co1322   1.984   1_554  S
O1061      C1074   1.298       .  A
O1061     Co1069   2.094       .  S
O1062      C1075   1.246       .  A
O1062     Co1070   1.949       .  S
O1063      C1076   1.273       .  A
O1063     Co1325   1.848       .  S
O1064      C1076   1.310   1_556  A
O1064     Co1323   2.122       .  S
O1065      C1329   1.270       .  A
O1065     Co1322   2.042   1_554  S
O1066      C1073   1.274       .  A
O1066     Co1325   2.003       .  S
O1067      C1074   1.268       .  A
O1067     Co1070   1.906       .  S
Co1068     O1314   1.984       .  S
Co1068     O1319   2.042       .  S
Co1068     O1072   2.030       .  S
Co1069     O1318   2.122       .  S
Co1069     O1072   2.034       .  S
Co1070     O1072   1.980       .  S
Co1071     O1317   1.848       .  S
Co1071     O1320   2.003       .  S
Co1071     O1072   1.900       .  S
C1073      C1156   1.472       .  S
C1074      C1199   1.472       .  S
C1075      O1319   1.270       .  A
C1075      C1440   1.484       .  S
C1076      C1259   1.426       .  S
O1077      C1085   1.237       .  A
O1077     Co1097   1.952       .  S
O1078      C1086   1.258       .  A
O1078     Co1098   1.941       .  S
O1079      C1087   1.290       .  A
O1079     Co1099   2.087       .  S
O1080      C1088   1.270       .  A
O1080     Co1100   2.007       .  S
O1081      C1087   1.264       .  A
O1081     Co1098   1.893       .  S
O1082      C1088   1.258       .  A
O1082     Co1097   1.978       .  S
O1083     Co1100   2.058   1_455  S
O1084      C1085   1.247       .  A
C1085      C1270   1.406       .  S
C1086      C1239   1.482       .  S
C1087      C1146   1.456       .  S
C1088      C1189   1.468       .  S
O1089      C1102   1.266       .  A
O1089     Co1097   1.990       .  S
O1090      C1103   1.303       .  A
O1090     Co1098   2.126       .  S
O1091      C1104   1.256       .  A
O1092      C1105   1.248       .  A
O1093      C1105   1.260       .  A
O1093     Co1098   2.015       .  S
O1094      C1104   1.289       .  A
O1094     Co1097   2.081       .  S
O1095      C1102   1.268       .  A
O1095     Co1100   1.990       .  S
O1096      C1103   1.250       .  A
O1096     Co1099   1.863       .  S
Co1097     O1101   2.018       .  S
Co1100     O1101   2.026       .  S
C1102      C1136   1.478       .  S
C1103      C1176   1.475       .  S
C1104      C1249   1.476       .  S
C1105      C1258   1.440       .  S
O1106      C1114   1.289       .  A
O1106     Co1634   2.085       .  S
O1107      C1623   1.280       .  A
O1107     Co1127   2.061       .  S
O1108      C1116   1.274       .  A
O1108     Co1128   1.990       .  S
O1109      C1117   1.248       .  A
O1109     Co1129   1.961       .  S
O1110      C1116   1.274       .  A
O1110     Co1127   2.002       .  S
O1111      C1117   1.267       .  A
O1111     Co1126   2.036       .  S
O1112      C1115   1.257   1_545  A
O1112     Co1129   1.945       .  S
O1113      C1114   1.266       .  A
O1113     Co1128   1.893       .  S
C1114      C1268   1.425       .  S
C1115      O1615   1.280       .  A
C1115      C1734   1.482       .  S
C1116      C1159   1.474       .  S
C1117      C1139   1.477       .  S
O1118      C1131   1.260       .  A
O1118     Co1126   1.956       .  S
O1119      C1132   1.264       .  A
O1119     Co1127   1.994       .  S
O1120      C1133   1.293       .  A
O1120     Co1128   2.104       .  S
O1121      C1134   1.270       .  A
O1121     Co1129   2.020       .  S
O1122      C1134   1.254       .  A
O1122     Co1635   1.948   1_545  S
O1123      C1133   1.270       .  A
O1123     Co1634   1.926       .  S
O1124      C1131   1.282       .  A
O1124     Co1129   2.065       .  S
O1125      C1132   1.262       .  A
O1125     Co1128   1.975       .  S
Co1126     O1614   2.085   1_545  S
Co1126     O1631   1.926       .  S
Co1126     O1638   2.022   1_545  S
Co1127     O1630   1.948       .  S
Co1127     O1130   2.037       .  S
Co1128     O1130   1.990       .  S
Co1129     O1638   2.032   1_545  S
O1130     Co1634   2.022       .  S
O1130     Co1637   2.032       .  S
C1131      C1169   1.494       .  S
C1132      C1149   1.469       .  S
C1133      C1219   1.495       .  S
C1134      C1256   1.426       .  S
C1135      C1136   1.409       .  A
C1135      C1140   1.396       .  A
C1135      H1141   1.083       .  S
C1136      C1137   1.402       .  A
C1137      C1138   1.401       .  A
C1137      H1142   1.083       .  S
C1138      C1139   1.409       .  A
C1138      H1143   1.083       .  S
C1139      C1140   1.399       .  A
C1140      H1144   1.079       .  S
C1145      C1146   1.397       .  A
C1145      C1150   1.386       .  A
C1145      H1151   1.084       .  S
C1146      C1147   1.403       .  A
C1147      C1148   1.403       .  A
C1147      H1152   1.081       .  S
C1148      C1149   1.405       .  A
C1148      H1153   1.083       .  S
C1149      C1150   1.404       .  A
C1150      H1154   1.084       .  S
C1155      C1156   1.399       .  A
C1155      C1160   1.401       .  A
C1155      H1161   1.083       .  S
C1156      C1157   1.407       .  A
C1157      C1158   1.395       .  A
C1157      H1162   1.073       .  S
C1158      C1159   1.392       .  A
C1158      H1163   1.077       .  S
C1159      C1160   1.410       .  A
C1160      H1164   1.084       .  S
C1165      C1166   1.405       .  A
C1165      C1170   1.393       .  A
C1165      H1171   1.083       .  S
C1166      C1167   1.408       .  A
C1167      C1168   1.412       .  A
C1167      H1172   1.083       .  S
C1168      C1169   1.410       .  A
C1168      H1173   1.083       .  S
C1169      C1170   1.407       .  A
C1170      H1174   1.083       .  S
C1175      C1176   1.414       .  A
C1175      C1180   1.391       .  A
C1175      H1181   1.083       .  S
C1176      C1177   1.397       .  A
C1177      C1178   1.402       .  A
C1177      H1182   1.083       .  S
C1178      C1179   1.416       .  A
C1178      H1183   1.083       .  S
C1179      C1180   1.394       .  A
C1180      H1184   1.083       .  S
C1185      C1186   1.406       .  A
C1185      C1190   1.411       .  A
C1185      H1191   1.083       .  S
C1186      C1329   1.484       .  S
C1186      C1187   1.410       .  A
C1187      C1188   1.383       .  A
C1187      H1192   1.083       .  S
C1188      C1189   1.391       .  A
C1188      H1193   1.084       .  S
C1189      C1190   1.409       .  A
C1190      H1194   1.080       .  S
C1195      C1196   1.402       .  A
C1195      C1200   1.409       .  A
C1195      H1201   1.083       .  S
C1196      C1451   1.408   1_554  A
C1197      C1450   1.408       .  A
C1197      C1198   1.390       .  A
C1197      H1202   1.084       .  S
C1198      C1199   1.396       .  A
C1198      H1203   1.084       .  S
C1199      C1454   1.409       .  A
C1200      C1453   1.409   1_554  A
C1200      H1204   1.076       .  S
C1205      C1206   1.408       .  A
C1205      C1210   1.409       .  A
C1205      H1211   1.081       .  S
C1206      C1207   1.407       .  A
C1207      C1208   1.395       .  A
C1207      H1212   1.083       .  S
C1208      C1209   1.405       .  A
C1208      H1467   1.083       .  S
C1209      C1210   1.409       .  A
C1210      H1214   1.083       .  S
H1213      C1462   1.083       .  S
C1215      C1724   1.403       .  A
C1215      C1220   1.390       .  A
C1215      H1221   1.084       .  S
C1216      C1723   1.403   1_545  A
C1216      C1217   1.409       .  A
C1217      C1218   1.415       .  A
C1217      H1222   1.082       .  S
C1218      C1727   1.411   1_545  A
C1218      H1223   1.083       .  S
C1219      C1726   1.411       .  A
C1219      C1220   1.404       .  A
C1220      H1224   1.077       .  S
C1225      C1226   1.408       .  A
C1225      C1230   1.413       .  A
C1225      H1739   1.083       .  S
C1226      C1623   1.482       .  S
C1226      C1227   1.400       .  A
C1227      C1228   1.395       .  A
C1227      H1232   1.072       .  S
C1228      C1229   1.401       .  A
C1228      H1233   1.085       .  S
C1229      C1283   1.479       .  S
C1229      C1230   1.408       .  A
C1230      H1234   1.081       .  S
H1231      C1733   1.083       .  S
C1235      C1236   1.397       .  A
C1235      C1240   1.397       .  A
C1235      H1241   1.083       .  S
C1237      C1238   1.402       .  A
C1237      H1242   1.083       .  S
C1238      H1243   1.083       .  S
C1239      C1240   1.413       .  A
C1240      H1244   1.080       .  S
C1245      C1246   1.405       .  A
C1245      C1250   1.400       .  A
C1246      C1247   1.404       .  A
C1247      C1248   1.402       .  A
C1247      H1252   1.083       .  S
C1248      C1249   1.403       .  A
C1248      H1253   1.072       .  S
C1249      C1250   1.406       .  A
C1255      C1256   1.203       .  T
C1257      C1258   1.210       .  T
C1259      C1260   1.203       .  T
C1261      C1262   1.213       .  T
C1263      C1264   1.200       .  T
C1265      C1266   1.200       .  T
C1267      C1268   1.201       .  T
C1269      C1270   1.190       .  T
C1271      C1518   1.454       .  S
C1271      C1520   1.455       .  S
C1271      C1521   1.456       .  S
C1271      C1523   1.438       .  S
C1272      C1509   1.460       .  S
C1272      C1511   1.473       .  S
C1272      C1514   1.460       .  S
C1272      C1516   1.478       .  S
O1273      C1281   1.263       .  A
O1274      C1282   1.273       .  A
O1274     Co1802   2.025       .  S
O1275      C1283   1.264   1_556  A
O1275     Co1295   1.992       .  S
O1276      C1284   1.272   1_455  A
O1276     Co1296   1.913       .  S
O1277     Co1294   1.993       .  S
O1278      C1284   1.298       .  A
O1279      C1282   1.255       .  A
O1280      C1281   1.264       .  A
O1280     Co1295   1.980       .  S
C1281      C1517   1.423       .  S
C1282      C1450   1.477       .  S
C1284      C1500   1.484       .  S
O1285      C1298   1.277       .  A
O1285     Co1801   1.893       .  S
O1286     Co1294   2.150       .  S
O1287      C1300   1.246       .  A
O1288      C1301   1.267       .  A
O1289     Co1802   2.000   1_455  S
O1290      C1300   1.260       .  A
O1290     Co1293   2.042       .  S
O1291      C1298   1.307       .  A
Co1293     O1793   1.893       .  S
Co1294     O1782   2.025       .  S
Co1294     O1797   2.000   1_655  S
Co1295     O1297   1.864       .  S
Co1296     O1805   1.996   1_455  S
O1297     Co1804   1.996   1_655  S
C1298      C1470   1.491       .  S
C1299      C1490   1.485       .  S
C1300      C1460   1.490       .  S
C1301      C1515   1.446       .  S
O1302      C1310   1.262       .  A
O1302     Co1322   1.956       .  S
O1303      C1311   1.237       .  A
O1303     Co1323   1.966       .  S
O1304      C1312   1.304       .  A
O1304     Co1324   2.096       .  S
O1305      C1313   1.276   1_554  A
O1305     Co1325   1.999       .  S
O1306      C1312   1.277       .  A
O1306     Co1323   1.909       .  S
O1307      C1313   1.278       .  A
O1307     Co1322   2.009       .  S
O1308      C1311   1.261       .  A
O1308     Co1325   2.026   1_556  S
O1309      C1310   1.272       .  A
O1309     Co1324   2.004       .  S
C1310      C1519   1.422       .  S
C1311      C1433   1.476       .  S
C1312      C1420   1.490       .  S
C1313      C1463   1.490       .  S
O1314      C1327   1.267       .  A
O1315      C1328   1.298       .  A
O1315     Co1323   2.094       .  S
O1316      C1329   1.246       .  A
O1316     Co1324   1.949   1_554  S
O1317      C1330   1.273       .  A
O1318      C1330   1.310       .  A
O1320      C1327   1.274       .  A
O1321      C1328   1.268       .  A
O1321     Co1324   1.906       .  S
Co1322     O1326   2.030       .  S
Co1323     O1326   2.034       .  S
Co1324     O1326   1.980       .  S
Co1325     O1326   1.900   1_554  S
C1327      C1410   1.472       .  S
C1328      C1453   1.472       .  S
C1330      C1513   1.426       .  S
O1331      C1339   1.237       .  A
O1331     Co1351   1.952       .  S
O1332      C1340   1.258       .  A
O1332     Co1352   1.941       .  S
O1333      C1341   1.290       .  A
O1333     Co1353   2.087       .  S
O1334      C1342   1.270       .  A
O1334     Co1354   2.007       .  S
O1335      C1341   1.264       .  A
O1335     Co1352   1.893       .  S
O1336      C1342   1.258       .  A
O1336     Co1351   1.978       .  S
O1337     Co1354   2.058   1_455  S
O1338      C1339   1.247       .  A
C1339      C1524   1.406       .  S
C1340      C1493   1.482       .  S
C1341      C1400   1.456       .  S
C1342      C1443   1.468       .  S
O1343      C1356   1.266       .  A
O1343     Co1351   1.990       .  S
O1344      C1357   1.303       .  A
O1344     Co1352   2.126       .  S
O1345      C1358   1.256       .  A
O1346      C1359   1.248       .  A
O1347      C1359   1.260       .  A
O1347     Co1352   2.015       .  S
O1348      C1358   1.289       .  A
O1348     Co1351   2.081       .  S
O1349      C1356   1.268       .  A
O1349     Co1354   1.990       .  S
O1350      C1357   1.250       .  A
O1350     Co1353   1.863       .  S
Co1351     O1355   2.018       .  S
Co1354     O1355   2.026       .  S
C1356      C1390   1.478       .  S
C1357      C1430   1.475       .  S
C1358      C1503   1.476       .  S
C1359      C1512   1.440       .  S
O1360      C1368   1.289       .  A
O1360     Co1888   2.085       .  S
O1361      C1877   1.280       .  A
O1361     Co1381   2.061       .  S
O1362      C1370   1.274       .  A
O1362     Co1382   1.990       .  S
O1363      C1371   1.248       .  A
O1363     Co1383   1.961       .  S
O1364      C1370   1.274       .  A
O1364     Co1381   2.002       .  S
O1365      C1371   1.267       .  A
O1365     Co1380   2.036       .  S
O1366      C1369   1.257   1_545  A
O1366     Co1383   1.945       .  S
O1367      C1368   1.266       .  A
O1367     Co1382   1.893       .  S
C1368      C1522   1.425       .  S
C1369      O1869   1.280       .  A
C1369      C1988   1.482       .  S
C1370      C1413   1.474       .  S
C1371      C1393   1.477       .  S
O1372      C1385   1.260       .  A
O1372     Co1380   1.956       .  S
O1373      C1386   1.264       .  A
O1373     Co1381   1.994       .  S
O1374      C1387   1.293       .  A
O1374     Co1382   2.104       .  S
O1375      C1388   1.270       .  A
O1375     Co1383   2.020       .  S
O1376      C1388   1.254       .  A
O1376     Co1889   1.948   1_545  S
O1377      C1387   1.270       .  A
O1377     Co1888   1.926       .  S
O1378      C1385   1.282       .  A
O1378     Co1383   2.065       .  S
O1379      C1386   1.262       .  A
O1379     Co1382   1.975       .  S
Co1380     O1868   2.085   1_545  S
Co1380     O1885   1.926       .  S
Co1380     O1892   2.022   1_545  S
Co1381     O1884   1.948       .  S
Co1381     O1384   2.037       .  S
Co1382     O1384   1.990       .  S
Co1383     O1892   2.032   1_545  S
O1384     Co1888   2.022       .  S
O1384     Co1891   2.032       .  S
C1385      C1423   1.494       .  S
C1386      C1403   1.469       .  S
C1387      C1473   1.495       .  S
C1388      C1510   1.426       .  S
C1389      C1390   1.409       .  A
C1389      C1394   1.396       .  A
C1389      H1395   1.083       .  S
C1390      C1391   1.402       .  A
C1391      C1392   1.401       .  A
C1391      H1396   1.083       .  S
C1392      C1393   1.409       .  A
C1392      H1397   1.083       .  S
C1393      C1394   1.399       .  A
C1394      H1398   1.079       .  S
C1399      C1400   1.397       .  A
C1399      C1404   1.386       .  A
C1399      H1405   1.084       .  S
C1400      C1401   1.403       .  A
C1401      C1402   1.403       .  A
C1401      H1406   1.081       .  S
C1402      C1403   1.405       .  A
C1402      H1407   1.083       .  S
C1403      C1404   1.404       .  A
C1404      H1408   1.084       .  S
C1409      C1410   1.399       .  A
C1409      C1414   1.401       .  A
C1409      H1415   1.083       .  S
C1410      C1411   1.407       .  A
C1411      C1412   1.395       .  A
C1411      H1416   1.073       .  S
C1412      C1413   1.392       .  A
C1412      H1417   1.077       .  S
C1413      C1414   1.410       .  A
C1414      H1418   1.084       .  S
C1419      C1420   1.405       .  A
C1419      C1424   1.393       .  A
C1419      H1425   1.083       .  S
C1420      C1421   1.408       .  A
C1421      C1422   1.412       .  A
C1421      H1426   1.083       .  S
C1422      C1423   1.410       .  A
C1422      H1427   1.083       .  S
C1423      C1424   1.407       .  A
C1424      H1428   1.083       .  S
C1429      C1430   1.414       .  A
C1429      C1434   1.391       .  A
C1429      H1435   1.083       .  S
C1430      C1431   1.397       .  A
C1431      C1432   1.402       .  A
C1431      H1436   1.083       .  S
C1432      C1433   1.416       .  A
C1432      H1437   1.083       .  S
C1433      C1434   1.394       .  A
C1434      H1438   1.083       .  S
C1439      C1440   1.406       .  A
C1439      C1444   1.411       .  A
C1439      H1445   1.083       .  S
C1440      C1441   1.410       .  A
C1441      C1442   1.383       .  A
C1441      H1446   1.083       .  S
C1442      C1443   1.391       .  A
C1442      H1447   1.084       .  S
C1443      C1444   1.409       .  A
C1444      H1448   1.080       .  S
C1449      C1450   1.402       .  A
C1449      C1454   1.409       .  A
C1449      H1455   1.083       .  S
C1451      C1452   1.390       .  A
C1451      H1456   1.084       .  S
C1452      C1453   1.396       .  A
C1452      H1457   1.084       .  S
C1454      H1458   1.076       .  S
C1459      C1460   1.408       .  A
C1459      C1464   1.409       .  A
C1459      H1465   1.081       .  S
C1460      C1461   1.407   1_556  A
C1461      C1462   1.395       .  A
C1461      H1466   1.083       .  S
C1462      C1463   1.405   1_554  A
C1463      C1464   1.409       .  A
C1464      H1468   1.083       .  S
C1469      C1978   1.403       .  A
C1469      C1474   1.390       .  A
C1469      H1475   1.084       .  S
C1470      C1977   1.403   1_545  A
C1470      C1471   1.409       .  A
C1471      C1472   1.415       .  A
C1471      H1476   1.082       .  S
C1472      C1981   1.411   1_545  A
C1472      H1477   1.083       .  S
C1473      C1980   1.411       .  A
C1473      C1474   1.404       .  A
C1474      H1478   1.077       .  S
C1479      C1480   1.408       .  A
C1479      C1484   1.413       .  A
C1479      H1993   1.083       .  S
C1480      C1877   1.482       .  S
C1480      C1481   1.400       .  A
C1481      C1482   1.395       .  A
C1481      H1486   1.072       .  S
C1482      C1483   1.401       .  A
C1482      H1487   1.085       .  S
C1483      C1484   1.408       .  A
C1484      H1488   1.081       .  S
H1485      C1987   1.083       .  S
C1489      C1490   1.397       .  A
C1489      C1494   1.397       .  A
C1489      H1495   1.083       .  S
C1491      C1492   1.402       .  A
C1491      H1496   1.083       .  S
C1492      H1497   1.083       .  S
C1493      C1494   1.413       .  A
C1494      H1498   1.080       .  S
C1499      C1500   1.405       .  A
C1499      C1504   1.400       .  A
C1500      C1501   1.404       .  A
C1501      C1502   1.402       .  A
C1501      H1506   1.083       .  S
C1502      C1503   1.403       .  A
C1502      H1507   1.072       .  S
C1503      C1504   1.406       .  A
C1509      C1510   1.203       .  T
C1511      C1512   1.210       .  T
C1513      C1514   1.203       .  T
C1515      C1516   1.213       .  T
C1517      C1518   1.200       .  T
C1519      C1520   1.200       .  T
C1521      C1522   1.201       .  T
C1523      C1524   1.190       .  T
C1525      C1772   1.454       .  S
C1525      C1774   1.455       .  S
C1525      C1775   1.456       .  S
C1525      C1777   1.438       .  S
C1526      C1763   1.460       .  S
C1526      C1765   1.473       .  S
C1526      C1768   1.460       .  S
C1526      C1770   1.478       .  S
O1527      C1535   1.263       .  A
O1528      C1536   1.273       .  A
O1529      C1537   1.264       .  A
O1529     Co1549   1.992       .  S
O1530      C1538   1.272   1_455  A
O1530     Co1550   1.913       .  S
O1531      C1791   1.263       .  A
O1531     Co1548   1.993   1_565  S
O1532      C1538   1.298       .  A
O1533      C1536   1.255   1_556  A
O1533     Co1804   1.960   1_655  S
O1534      C1535   1.264       .  A
O1534     Co1549   1.980       .  S
C1535      C1771   1.423       .  S
C1536      C1704   1.477       .  S
C1537      O1785   1.263       .  A
C1537      C1991   1.479       .  S
C1538      C1754   1.484       .  S
O1539      C1552   1.277       .  A
O1540     Co1548   2.150   1_565  S
O1541      C1554   1.246       .  A
O1542      C1555   1.267       .  A
O1544      C1554   1.260       .  A
O1544     Co1547   2.042   1_565  S
O1545      C1552   1.307       .  A
O1546      C1807   1.266       .  A
Co1548     O1805   2.117   1_554  S
Co1549     O1551   1.864   1_565  S
Co1550     O1787   1.960   1_455  S
O1551     Co1802   2.117       .  S
C1552      C1724   1.491       .  S
C1553      O1800   1.266       .  A
C1553      C1744   1.485       .  S
C1554      C1714   1.490       .  S
C1555      C1769   1.446       .  S
O1556      C1564   1.262       .  A
O1556     Co1576   1.956       .  S
O1557      C1565   1.237       .  A
O1557     Co1577   1.966       .  S
O1558      C1566   1.304       .  A
O1558     Co1578   2.096       .  S
O1559      C1567   1.276       .  A
O1559     Co1579   1.999       .  S
O1560      C1566   1.277       .  A
O1560     Co1577   1.909       .  S
O1561      C1567   1.278       .  A
O1561     Co1576   2.009       .  S
O1562      C1565   1.261       .  A
O1562     Co1579   2.026       .  S
O1563      C1564   1.272       .  A
O1563     Co1578   2.004       .  S
C1564      C1773   1.422       .  S
C1565      C1687   1.476       .  S
C1566      C1674   1.490       .  S
C1567      C1717   1.490       .  S
O1568      C1581   1.267       .  A
O1568     Co1830   1.984   1_554  S
O1569      C1582   1.298       .  A
O1569     Co1577   2.094       .  S
O1570      C1583   1.246       .  A
O1570     Co1578   1.949       .  S
O1571      C1584   1.273       .  A
O1571     Co1833   1.848       .  S
O1572      C1584   1.310   1_556  A
O1572     Co1831   2.122       .  S
O1573      C1837   1.270       .  A
O1573     Co1830   2.042   1_554  S
O1574      C1581   1.274       .  A
O1574     Co1833   2.003       .  S
O1575      C1582   1.268       .  A
O1575     Co1578   1.906       .  S
Co1576     O1822   1.984       .  S
Co1576     O1827   2.042       .  S
Co1576     O1580   2.030       .  S
Co1577     O1826   2.122       .  S
Co1577     O1580   2.034       .  S
Co1578     O1580   1.980       .  S
Co1579     O1825   1.848       .  S
Co1579     O1828   2.003       .  S
Co1579     O1580   1.900       .  S
C1581      C1664   1.472       .  S
C1582      C1707   1.472       .  S
C1583      O1827   1.270       .  A
C1583      C1948   1.484       .  S
C1584      C1767   1.426       .  S
O1585      C1593   1.237       .  A
O1585     Co1605   1.952       .  S
O1586      C1594   1.258       .  A
O1586     Co1606   1.941       .  S
O1587      C1595   1.290       .  A
O1587     Co1607   2.087       .  S
O1588      C1596   1.270       .  A
O1588     Co1608   2.007       .  S
O1589      C1595   1.264       .  A
O1589     Co1606   1.893       .  S
O1590      C1596   1.258       .  A
O1590     Co1605   1.978       .  S
O1591     Co1608   2.058   1_455  S
O1592      C1593   1.247       .  A
C1593      C1778   1.406       .  S
C1594      C1747   1.482       .  S
C1595      C1654   1.456       .  S
C1596      C1697   1.468       .  S
O1597      C1610   1.266       .  A
O1597     Co1605   1.990       .  S
O1598      C1611   1.303       .  A
O1598     Co1606   2.126       .  S
O1599      C1612   1.256       .  A
O1600      C1613   1.248       .  A
O1601      C1613   1.260       .  A
O1601     Co1606   2.015       .  S
O1602      C1612   1.289       .  A
O1602     Co1605   2.081       .  S
O1603      C1610   1.268       .  A
O1603     Co1608   1.990       .  S
O1604      C1611   1.250       .  A
O1604     Co1607   1.863       .  S
Co1605     O1609   2.018       .  S
Co1608     O1609   2.026       .  S
C1610      C1644   1.478       .  S
C1611      C1684   1.475       .  S
C1612      C1757   1.476       .  S
C1613      C1766   1.440       .  S
O1614      C1622   1.289       .  A
O1615     Co1635   2.061       .  S
O1616      C1624   1.274       .  A
O1616     Co1636   1.990       .  S
O1617      C1625   1.248       .  A
O1617     Co1637   1.961       .  S
O1618      C1624   1.274       .  A
O1618     Co1635   2.002       .  S
O1619      C1625   1.267       .  A
O1619     Co1634   2.036       .  S
O1620      C1623   1.257       .  A
O1620     Co1637   1.945       .  S
O1621      C1622   1.266       .  A
O1621     Co1636   1.893       .  S
C1622      C1776   1.425       .  S
C1624      C1667   1.474       .  S
C1625      C1647   1.477       .  S
O1626      C1639   1.260       .  A
O1626     Co1634   1.956       .  S
O1627      C1640   1.264       .  A
O1627     Co1635   1.994       .  S
O1628      C1641   1.293       .  A
O1628     Co1636   2.104       .  S
O1629      C1642   1.270       .  A
O1629     Co1637   2.020       .  S
O1630      C1642   1.254       .  A
O1631      C1641   1.270   1_545  A
O1632      C1639   1.282       .  A
O1632     Co1637   2.065       .  S
O1633      C1640   1.262       .  A
O1633     Co1636   1.975       .  S
Co1635     O1638   2.037       .  S
Co1636     O1638   1.990       .  S
C1639      C1677   1.494       .  S
C1640      C1657   1.469       .  S
C1641      C1727   1.495       .  S
C1642      C1764   1.426       .  S
C1643      C1644   1.409       .  A
C1643      C1648   1.396       .  A
C1643      H1649   1.083       .  S
C1644      C1645   1.402       .  A
C1645      C1646   1.401       .  A
C1645      H1650   1.083       .  S
C1646      C1647   1.409       .  A
C1646      H1651   1.083       .  S
C1647      C1648   1.399       .  A
C1648      H1652   1.079       .  S
C1653      C1654   1.397       .  A
C1653      C1658   1.386       .  A
C1653      H1659   1.084       .  S
C1654      C1655   1.403       .  A
C1655      C1656   1.403       .  A
C1655      H1660   1.081       .  S
C1656      C1657   1.405       .  A
C1656      H1661   1.083       .  S
C1657      C1658   1.404       .  A
C1658      H1662   1.084       .  S
C1663      C1664   1.399       .  A
C1663      C1668   1.401       .  A
C1663      H1669   1.083       .  S
C1664      C1665   1.407       .  A
C1665      C1666   1.395       .  A
C1665      H1670   1.073       .  S
C1666      C1667   1.392       .  A
C1666      H1671   1.077       .  S
C1667      C1668   1.410       .  A
C1668      H1672   1.084       .  S
C1673      C1674   1.405       .  A
C1673      C1678   1.393       .  A
C1673      H1679   1.083       .  S
C1674      C1675   1.408       .  A
C1675      C1676   1.412       .  A
C1675      H1680   1.083       .  S
C1676      C1677   1.410       .  A
C1676      H1681   1.083       .  S
C1677      C1678   1.407       .  A
C1678      H1682   1.083       .  S
C1683      C1684   1.414       .  A
C1683      C1688   1.391       .  A
C1683      H1689   1.083       .  S
C1684      C1685   1.397       .  A
C1685      C1686   1.402       .  A
C1685      H1690   1.083       .  S
C1686      C1687   1.416       .  A
C1686      H1691   1.083       .  S
C1687      C1688   1.394       .  A
C1688      H1692   1.083       .  S
C1693      C1694   1.406       .  A
C1693      C1698   1.411       .  A
C1693      H1699   1.083       .  S
C1694      C1837   1.484       .  S
C1694      C1695   1.410       .  A
C1695      C1696   1.383       .  A
C1695      H1700   1.083       .  S
C1696      C1697   1.391       .  A
C1696      H1701   1.084       .  S
C1697      C1698   1.409       .  A
C1698      H1702   1.080       .  S
C1703      C1704   1.402       .  A
C1703      C1708   1.409       .  A
C1703      H1709   1.083       .  S
C1704      C1959   1.408   1_554  A
C1705      C1958   1.408       .  A
C1705      C1706   1.390       .  A
C1705      H1710   1.084       .  S
C1706      C1707   1.396       .  A
C1706      H1711   1.084       .  S
C1707      C1962   1.409       .  A
C1708      C1961   1.409   1_554  A
C1708      H1712   1.076       .  S
C1713      C1714   1.408       .  A
C1713      C1718   1.409       .  A
C1713      H1719   1.081       .  S
C1714      C1715   1.407       .  A
C1715      C1716   1.395       .  A
C1715      H1720   1.083       .  S
C1716      C1717   1.405       .  A
C1716      H1975   1.083       .  S
C1717      C1718   1.409       .  A
C1718      H1722   1.083       .  S
H1721      C1970   1.083       .  S
C1723      C1728   1.390       .  A
C1723      H1729   1.084       .  S
C1724      C1725   1.409       .  A
C1725      C1726   1.415       .  A
C1725      H1730   1.082       .  S
C1726      H1731   1.083       .  S
C1727      C1728   1.404       .  A
C1728      H1732   1.077       .  S
C1733      C1734   1.408   1_545  A
C1733      C1738   1.413       .  A
C1734      C1735   1.400       .  A
C1735      C1736   1.395       .  A
C1735      H1740   1.072       .  S
C1736      C1737   1.401       .  A
C1736      H1741   1.085       .  S
C1737      C1791   1.479       .  S
C1737      C1738   1.408   1_565  A
C1738      H1742   1.081       .  S
C1743      C1744   1.397       .  A
C1743      C1748   1.397       .  A
C1743      H1749   1.083       .  S
C1745      C1746   1.402       .  A
C1745      H1750   1.083       .  S
C1746      H1751   1.083       .  S
C1747      C1748   1.413       .  A
C1748      H1752   1.080       .  S
C1753      C1754   1.405       .  A
C1753      C1758   1.400       .  A
C1754      C1755   1.404       .  A
C1755      C1756   1.402       .  A
C1755      H1760   1.083       .  S
C1756      C1757   1.403       .  A
C1756      H1761   1.072       .  S
C1757      C1758   1.406       .  A
C1763      C1764   1.203       .  T
C1765      C1766   1.210       .  T
C1767      C1768   1.203       .  T
C1769      C1770   1.213       .  T
C1771      C1772   1.200       .  T
C1773      C1774   1.200       .  T
C1775      C1776   1.201       .  T
C1777      C1778   1.190       .  T
C1779      C2026   1.454       .  S
C1779      C2028   1.455       .  S
C1779      C2029   1.456       .  S
C1779      C2031   1.438       .  S
C1780      C2017   1.460       .  S
C1780      C2019   1.473       .  S
C1780      C2022   1.460       .  S
C1780      C2024   1.478       .  S
O1781      C1789   1.263       .  A
O1782      C1790   1.273       .  A
O1783      C1791   1.264   1_556  A
O1783     Co1803   1.992       .  S
O1784      C1792   1.272   1_455  A
O1784     Co1804   1.913       .  S
O1785     Co1802   1.993   1_565  S
O1786      C1792   1.298       .  A
O1787      C1790   1.255       .  A
O1788      C1789   1.264       .  A
O1788     Co1803   1.980       .  S
C1789      C2025   1.423       .  S
C1790      C1958   1.477       .  S
C1792      C2008   1.484       .  S
O1793      C1806   1.277       .  A
O1794     Co1802   2.150   1_565  S
O1795      C1808   1.246       .  A
O1796      C1809   1.267       .  A
O1798      C1808   1.260       .  A
O1798     Co1801   2.042   1_565  S
O1799      C1806   1.307       .  A
Co1803     O1805   1.864   1_565  S
C1806      C1978   1.491       .  S
C1807      C1998   1.485       .  S
C1808      C1968   1.490       .  S
C1809      C2023   1.446       .  S
O1810      C1818   1.262       .  A
O1810     Co1830   1.956       .  S
O1811      C1819   1.237       .  A
O1811     Co1831   1.966       .  S
O1812      C1820   1.304       .  A
O1812     Co1832   2.096       .  S
O1813      C1821   1.276   1_554  A
O1813     Co1833   1.999       .  S
O1814      C1820   1.277       .  A
O1814     Co1831   1.909       .  S
O1815      C1821   1.278       .  A
O1815     Co1830   2.009       .  S
O1816      C1819   1.261       .  A
O1816     Co1833   2.026   1_556  S
O1817      C1818   1.272       .  A
O1817     Co1832   2.004       .  S
C1818      C2027   1.422       .  S
C1819      C1941   1.476       .  S
C1820      C1928   1.490       .  S
C1821      C1971   1.490       .  S
O1822      C1835   1.267       .  A
O1823      C1836   1.298       .  A
O1823     Co1831   2.094       .  S
O1824      C1837   1.246       .  A
O1824     Co1832   1.949   1_554  S
O1825      C1838   1.273       .  A
O1826      C1838   1.310       .  A
O1828      C1835   1.274       .  A
O1829      C1836   1.268       .  A
O1829     Co1832   1.906       .  S
Co1830     O1834   2.030       .  S
Co1831     O1834   2.034       .  S
Co1832     O1834   1.980       .  S
Co1833     O1834   1.900   1_554  S
C1835      C1918   1.472       .  S
C1836      C1961   1.472       .  S
C1838      C2021   1.426       .  S
O1839      C1847   1.237       .  A
O1839     Co1859   1.952       .  S
O1840      C1848   1.258       .  A
O1840     Co1860   1.941       .  S
O1841      C1849   1.290       .  A
O1841     Co1861   2.087       .  S
O1842      C1850   1.270       .  A
O1842     Co1862   2.007       .  S
O1843      C1849   1.264       .  A
O1843     Co1860   1.893       .  S
O1844      C1850   1.258       .  A
O1844     Co1859   1.978       .  S
O1845     Co1862   2.058   1_455  S
O1846      C1847   1.247       .  A
C1847      C2032   1.406       .  S
C1848      C2001   1.482       .  S
C1849      C1908   1.456       .  S
C1850      C1951   1.468       .  S
O1851      C1864   1.266       .  A
O1851     Co1859   1.990       .  S
O1852      C1865   1.303       .  A
O1852     Co1860   2.126       .  S
O1853      C1866   1.256       .  A
O1854      C1867   1.248       .  A
O1855      C1867   1.260       .  A
O1855     Co1860   2.015       .  S
O1856      C1866   1.289       .  A
O1856     Co1859   2.081       .  S
O1857      C1864   1.268       .  A
O1857     Co1862   1.990       .  S
O1858      C1865   1.250       .  A
O1858     Co1861   1.863       .  S
Co1859     O1863   2.018       .  S
Co1862     O1863   2.026       .  S
C1864      C1898   1.478       .  S
C1865      C1938   1.475       .  S
C1866      C2011   1.476       .  S
C1867      C2020   1.440       .  S
O1868      C1876   1.289       .  A
O1869     Co1889   2.061       .  S
O1870      C1878   1.274       .  A
O1870     Co1890   1.990       .  S
O1871      C1879   1.248       .  A
O1871     Co1891   1.961       .  S
O1872      C1878   1.274       .  A
O1872     Co1889   2.002       .  S
O1873      C1879   1.267       .  A
O1873     Co1888   2.036       .  S
O1874      C1877   1.257       .  A
O1874     Co1891   1.945       .  S
O1875      C1876   1.266       .  A
O1875     Co1890   1.893       .  S
C1876      C2030   1.425       .  S
C1878      C1921   1.474       .  S
C1879      C1901   1.477       .  S
O1880      C1893   1.260       .  A
O1880     Co1888   1.956       .  S
O1881      C1894   1.264       .  A
O1881     Co1889   1.994       .  S
O1882      C1895   1.293       .  A
O1882     Co1890   2.104       .  S
O1883      C1896   1.270       .  A
O1883     Co1891   2.020       .  S
O1884      C1896   1.254       .  A
O1885      C1895   1.270   1_545  A
O1886      C1893   1.282       .  A
O1886     Co1891   2.065       .  S
O1887      C1894   1.262       .  A
O1887     Co1890   1.975       .  S
Co1889     O1892   2.037       .  S
Co1890     O1892   1.990       .  S
C1893      C1931   1.494       .  S
C1894      C1911   1.469       .  S
C1895      C1981   1.495       .  S
C1896      C2018   1.426       .  S
C1897      C1898   1.409       .  A
C1897      C1902   1.396       .  A
C1897      H1903   1.083       .  S
C1898      C1899   1.402       .  A
C1899      C1900   1.401       .  A
C1899      H1904   1.083       .  S
C1900      C1901   1.409       .  A
C1900      H1905   1.083       .  S
C1901      C1902   1.399       .  A
C1902      H1906   1.079       .  S
C1907      C1908   1.397       .  A
C1907      C1912   1.386       .  A
C1907      H1913   1.084       .  S
C1908      C1909   1.403       .  A
C1909      C1910   1.403       .  A
C1909      H1914   1.081       .  S
C1910      C1911   1.405       .  A
C1910      H1915   1.083       .  S
C1911      C1912   1.404       .  A
C1912      H1916   1.084       .  S
C1917      C1918   1.399       .  A
C1917      C1922   1.401       .  A
C1917      H1923   1.083       .  S
C1918      C1919   1.407       .  A
C1919      C1920   1.395       .  A
C1919      H1924   1.073       .  S
C1920      C1921   1.392       .  A
C1920      H1925   1.077       .  S
C1921      C1922   1.410       .  A
C1922      H1926   1.084       .  S
C1927      C1928   1.405       .  A
C1927      C1932   1.393       .  A
C1927      H1933   1.083       .  S
C1928      C1929   1.408       .  A
C1929      C1930   1.412       .  A
C1929      H1934   1.083       .  S
C1930      C1931   1.410       .  A
C1930      H1935   1.083       .  S
C1931      C1932   1.407       .  A
C1932      H1936   1.083       .  S
C1937      C1938   1.414       .  A
C1937      C1942   1.391       .  A
C1937      H1943   1.083       .  S
C1938      C1939   1.397       .  A
C1939      C1940   1.402       .  A
C1939      H1944   1.083       .  S
C1940      C1941   1.416       .  A
C1940      H1945   1.083       .  S
C1941      C1942   1.394       .  A
C1942      H1946   1.083       .  S
C1947      C1948   1.406       .  A
C1947      C1952   1.411       .  A
C1947      H1953   1.083       .  S
C1948      C1949   1.410       .  A
C1949      C1950   1.383       .  A
C1949      H1954   1.083       .  S
C1950      C1951   1.391       .  A
C1950      H1955   1.084       .  S
C1951      C1952   1.409       .  A
C1952      H1956   1.080       .  S
C1957      C1958   1.402       .  A
C1957      C1962   1.409       .  A
C1957      H1963   1.083       .  S
C1959      C1960   1.390       .  A
C1959      H1964   1.084       .  S
C1960      C1961   1.396       .  A
C1960      H1965   1.084       .  S
C1962      H1966   1.076       .  S
C1967      C1968   1.408       .  A
C1967      C1972   1.409       .  A
C1967      H1973   1.081       .  S
C1968      C1969   1.407   1_556  A
C1969      C1970   1.395       .  A
C1969      H1974   1.083       .  S
C1970      C1971   1.405   1_554  A
C1971      C1972   1.409       .  A
C1972      H1976   1.083       .  S
C1977      C1982   1.390       .  A
C1977      H1983   1.084       .  S
C1978      C1979   1.409       .  A
C1979      C1980   1.415       .  A
C1979      H1984   1.082       .  S
C1980      H1985   1.083       .  S
C1981      C1982   1.404       .  A
C1982      H1986   1.077       .  S
C1987      C1988   1.408   1_545  A
C1987      C1992   1.413       .  A
C1988      C1989   1.400       .  A
C1989      C1990   1.395       .  A
C1989      H1994   1.072       .  S
C1990      C1991   1.401       .  A
C1990      H1995   1.085       .  S
C1991      C1992   1.408   1_565  A
C1992      H1996   1.081       .  S
C1997      C1998   1.397       .  A
C1997      C2002   1.397       .  A
C1997      H2003   1.083       .  S
C1999      C2000   1.402       .  A
C1999      H2004   1.083       .  S
C2000      H2005   1.083       .  S
C2001      C2002   1.413       .  A
C2002      H2006   1.080       .  S
C2007      C2008   1.405       .  A
C2007      C2012   1.400       .  A
C2008      C2009   1.404       .  A
C2009      C2010   1.402       .  A
C2009      H2014   1.083       .  S
C2010      C2011   1.403       .  A
C2010      H2015   1.072       .  S
C2011      C2012   1.406       .  A
C2017      C2018   1.203       .  T
C2019      C2020   1.210       .  T
C2021      C2022   1.203       .  T
C2023      C2024   1.213       .  T
C2025      C2026   1.200       .  T
C2027      C2028   1.200       .  T
C2029      C2030   1.201       .  T
C2031      C2032   1.190       .  T
