geometry optimzed in LAMMPS
_audit_creation_date              2020-12-01 
_audit_creation_method            'lammps2cif' 
_symmetry_space_group_name_H-M    'P1' 
_symmetry_Int_Tables_number       1 
_symmetry_cell_setting            triclinic 
loop_ 
_symmetry_equiv_pos_as_xyz 
  x,y,z 
_cell_length_a                    46.59604331 
_cell_length_b                    46.51719320682798 
_cell_length_c                    29.84202782810821 
_cell_angle_alpha                 88.44664086992064 
_cell_angle_beta                  91.52283140685282 
_cell_angle_gamma                 119.54897523476274 
loop_ 
_atom_site_label 
_atom_site_type_symbol 
_atom_site_fract_x 
_atom_site_fract_y 
_atom_site_fract_z 
_atom_site_charge 
C1          C  0.31323792  0.15338556  0.86857396     0.86400
C2          C  0.34536134  0.15899816  0.84725946    -0.53900
C3          C  0.34492014  0.15971142  0.80146231     0.09300
C4          C  0.31222741  0.15504421  0.78097190     0.20200
C5          C  0.30832523  0.18143666  0.84804695    -0.54600
C6          C  0.30768695  0.18235350  0.80217243     0.09400
C7          C  0.28592323  0.12176121  0.84745705    -0.54100
C8          C  0.28517982  0.12238219  0.80164773     0.10000
H9          H  0.36694159  0.16300951  0.86674208     0.14500
H10         H  0.31179837  0.15565054  0.74390010     0.00200
H11         H  0.30645317  0.19951454  0.86808422     0.14800
H12         H  0.26869536  0.10072986  0.86747466     0.14600
N13         N  0.40736665  0.17387960  0.71859680    -0.27400
N14         N  0.42461923  0.17867928  0.75618645    -0.35300
C15         C  0.40512497  0.17406255  0.79108896     0.00900
C16         C  0.37393431  0.16596432  0.77482515     0.07000
C17         C  0.37630186  0.16608208  0.72858494    -0.06100
H18         H  0.41342173  0.17702604  0.82569328     0.07600
H19         H  0.35706767  0.16111477  0.70389834     0.08800
Cu20       Cu  0.47437869  0.19307262  0.75839615     0.44200
Cu21       Cu  0.42799678  0.17892906  0.65617299     0.42000
Cu22       Cu  0.09923587  0.31148877  0.65697531     0.43900
N23         N  0.10541581  0.31999504  0.75707298    -0.34800
N24         N  0.12185205  0.32835285  0.71915096    -0.29000
C25         C  0.15402753  0.34890758  0.72833934    -0.05100
C26         C  0.15791873  0.35367456  0.77427557     0.07100
C27         C  0.12650349  0.33492299  0.79123200     0.00900
H28         H  0.17306352  0.35931493  0.70335464     0.08500
H29         H  0.11925794  0.33204326  0.82590030     0.07600
N30         N  0.06862820  0.29267378  0.60078976    -0.36200
N31         N  0.45469216  0.18459735  0.59889418    -0.28400
C32         C  0.44238066  0.17820167  0.55684045    -0.03700
C33         C  0.46766046  0.18460669  0.52811517     0.04900
C34         C  0.07778219  0.29577865  0.55772119     0.03000
H35         H  0.41678294  0.16945625  0.54783098     0.08100
H36         H  0.10310360  0.30875391  0.54683186     0.07000
C37         C  0.22479269  0.39308633  0.86676629     0.86400
C38         C  0.18986700  0.37323883  0.84611807    -0.53900
C39         C  0.18888378  0.37322100  0.80030820     0.09300
C40         C  0.22311558  0.39307998  0.77916173     0.20200
C41         C  0.24370786  0.37758192  0.84600736    -0.54600
C42         C  0.24282181  0.37738511  0.80021426     0.09400
C43         C  0.23919495  0.42755082  0.84526977    -0.54100
C44         C  0.23824009  0.42782495  0.79941070     0.10000
H45         H  0.16798533  0.35906464  0.86596460     0.14500
H46         H  0.22243754  0.39317438  0.74208660     0.00200
H47         H  0.25538181  0.36627976  0.86597109     0.14800
H48         H  0.24869238  0.44968763  0.86511837     0.14600
N49         N  0.29995593  0.23816028  0.71984670    -0.27400
N50         N  0.29768028  0.25098881  0.75764262    -0.35300
C51         C  0.30021133  0.23337607  0.79240664     0.00900
C52         C  0.30425973  0.20807027  0.77586821     0.07000
C53         C  0.30403799  0.21194985  0.72961811    -0.06100
H54         H  0.29866830  0.23846760  0.82712787     0.07600
H55         H  0.30629608  0.19674281  0.70474191     0.08800
Cu56       Cu  0.28897313  0.29044370  0.76056539     0.44200
Cu57       Cu  0.29595271  0.25656429  0.65712010     0.42000
Cu58       Cu  0.27001005  0.31911206  0.65685948     0.43900
N59         N  0.27398359  0.32558593  0.75676544    -0.34800
N60         N  0.26610705  0.33552472  0.71888218    -0.29000
C61         C  0.25492981  0.35638050  0.72817084    -0.05100
C62         C  0.25586808  0.35977368  0.77423679     0.07100
C63         C  0.26815834  0.33988105  0.79118814     0.00900
H64         H  0.24601637  0.36745748  0.70315827     0.08500
H65         H  0.27137304  0.33491406  0.82601067     0.07600
N66         N  0.27963326  0.30137484  0.59966610    -0.36200
N67         N  0.28934118  0.27902199  0.59959744    -0.28400
C68         C  0.29395250  0.27367318  0.55698632    -0.03700
C69         C  0.28678685  0.29366116  0.52899046     0.04900
C70         C  0.27783708  0.31082970  0.55721519     0.03000
H71         H  0.30190070  0.25647497  0.54740233     0.08100
H72         H  0.27057544  0.32895541  0.54761530     0.07000
N73         N  0.25812620  0.49460675  0.71664697    -0.27400
N74         N  0.26770919  0.51137912  0.75428652    -0.35300
C75         C  0.26274351  0.49045223  0.78882675     0.00900
C76         C  0.24927012  0.45873559  0.77252078     0.07000
C77         C  0.24671627  0.46232562  0.72646273    -0.06100
H78         H  0.26814292  0.49796572  0.82339747     0.07600
H79         H  0.23680647  0.44295905  0.70190836     0.08800
Cu80       Cu  0.18861085  0.99336644  0.75713845     0.44200
Cu81       Cu  0.26080992  0.51715654  0.65429437     0.42000
Cu82       Cu  0.21543998  0.04072120  0.65606464     0.43900
N83         N  0.22225980  0.04347723  0.75602379    -0.34800
N84         N  0.23275150  0.06114589  0.71863816    -0.29000
C85         C  0.25629725  0.09206409  0.72883708    -0.05100
C86         C  0.26082843  0.09389281  0.77501413     0.07100
C87         C  0.23869597  0.06256089  0.79103664     0.00900
H88         H  0.26950003  0.11144759  0.70428731     0.08500
H89         H  0.23543591  0.05379437  0.82546053     0.07600
N90         N  0.19638486  0.01408654  0.59772194    -0.36200
N91         N  0.26848017  0.54751990  0.59793100    -0.28400
C92         C  0.26432578  0.53854327  0.55469246    -0.03700
C93         C  0.18684383  0.00104042  0.52604123     0.04900
C94         C  0.20306602  0.02658246  0.55575056     0.03000
H95         H  0.25584960  0.51359659  0.54383562     0.08100
H96         H  0.21911736  0.05240075  0.54745775     0.07000
C97         C  0.31600735  0.14924963  0.06627114     0.86400
C98         C  0.28983169  0.11673886  0.08732583    -0.53900
C99         C  0.29036904  0.11597464  0.13318718     0.09300
C100        C  0.31759464  0.14830748  0.15397482     0.19700
C101        C  0.31103424  0.17615460  0.08755500    -0.54600
C102        C  0.31162327  0.17572255  0.13333945     0.09400
C103        C  0.34900697  0.15491940  0.08684389    -0.54100
C104        C  0.35000471  0.15428170  0.13270554     0.10000
H105        H  0.27215805  0.09626391  0.06719424     0.14500
H106        H  0.31816043  0.14777949  0.19108940     0.00200
H107        H  0.30820147  0.19457172  0.06796796     0.14800
H108        H  0.37003583  0.15981744  0.06678821     0.14600
N109        N  0.41561713  0.16663792  0.21384298    -0.27400
N110        N  0.43113958  0.17108606  0.17567843    -0.35300
C111        C  0.41031126  0.16721193  0.14140654     0.00900
C112        C  0.38003772  0.15995166  0.15858443     0.07000
C113        C  0.38439141  0.15981567  0.20475904    -0.06100
H114        H  0.41705317  0.16994261  0.10653437     0.07600
H115        H  0.36636045  0.15531778  0.23001139     0.08800
Cu116      Cu  0.48053190  0.18396363  0.17136704     0.44200
Cu117      Cu  0.43856611  0.17096397  0.27611715     0.42000
Cu118      Cu  0.10866296  0.30789555  0.27584263     0.43900
N119        N  0.11129276  0.31587493  0.17609109    -0.34800
N120        N  0.12912915  0.32410641  0.21347793    -0.29000
C121        C  0.16102992  0.34410793  0.20350541    -0.05100
C122        C  0.16342559  0.34868853  0.15744105     0.07100
C123        C  0.13132696  0.33038671  0.14120398     0.00900
H124        H  0.18085784  0.35429789  0.22812508     0.08500
H125        H  0.12296533  0.32758431  0.10663170     0.07600
N126        N  0.08202057  0.29187460  0.33414894    -0.36200
N127        N  0.46813884  0.17825738  0.33302799    -0.28400
C128        C  0.45916312  0.17616912  0.37601743    -0.03700
C129        C  0.48656379  0.18419660  0.40333834     0.04900
C130        C  0.09458294  0.29969183  0.37590471     0.03000
H131        H  0.43465741  0.16993137  0.38629687     0.08100
H132        H  0.12052784  0.31502500  0.38391428     0.07000
C133        C  0.22766848  0.38896000  0.06420701     0.86400
C134        C  0.24279672  0.42302077  0.08539334    -0.53900
C135        C  0.24319558  0.42248096  0.13117896     0.09300
C136        C  0.22862340  0.38734928  0.15177233     0.20200
C137        C  0.24717647  0.37293903  0.08480279    -0.54600
C138        C  0.24766747  0.37191434  0.13070789     0.09400
C139        C  0.19336545  0.36879556  0.08527491    -0.54100
C140        C  0.19373220  0.36801042  0.13102040     0.10000
H141        H  0.25163044  0.44552844  0.06536063     0.14500
H142        H  0.22902761  0.38675753  0.18884434     0.00200
H143        H  0.25842361  0.36216613  0.06474562     0.14800
H144        H  0.17084980  0.35513578  0.06576909     0.14600
N145        N  0.27540995  0.33063742  0.21327135    -0.27400
N146        N  0.27965098  0.31904107  0.17558495    -0.35300
C147        C  0.27172941  0.33282051  0.14070774     0.00900
C148        C  0.26178373  0.35410573  0.15704001     0.07000
C149        C  0.26445862  0.35204183  0.20331699    -0.06100
H150        H  0.27178636  0.32653076  0.10610716     0.07600
H151        H  0.25807174  0.36440070  0.22808311     0.08800
Cu152      Cu  0.29247804  0.28224427  0.17339388     0.44200
Cu153      Cu  0.28280538  0.31450687  0.27607181     0.42000
Cu154      Cu  0.30127146  0.24598972  0.27715952     0.43900
N155        N  0.30077160  0.24230585  0.17720637    -0.34800
N156        N  0.30378705  0.22864438  0.21511650    -0.29000
C157        C  0.30813379  0.20288852  0.20573918    -0.05100
C158        C  0.30780609  0.20022168  0.15957416     0.07100
C159        C  0.30306784  0.22567834  0.14271643     0.00900
H160        H  0.31117773  0.18731373  0.23076966     0.08500
H161        H  0.30119029  0.23175757  0.10794132     0.07600
N162        N  0.29720305  0.26827687  0.33388636    -0.36200
N163        N  0.29052040  0.29283029  0.33376048    -0.28400
C164        C  0.28904309  0.30060902  0.37643058    -0.03700
C165        C  0.29508766  0.27992712  0.40461197     0.04900
C166        C  0.30020120  0.25988448  0.37647742     0.03000
H167        H  0.28366233  0.31970128  0.38594611     0.08100
H168        H  0.30531330  0.24026793  0.38624614     0.07000
N169        N  0.26356903  0.48726073  0.21317415    -0.27400
N170        N  0.27122737  0.50480525  0.17548940    -0.35300
C171        C  0.26604533  0.48477284  0.14101360     0.00900
C172        C  0.25443297  0.45286697  0.15763994     0.07000
C173        C  0.25322041  0.45543571  0.20367599    -0.06100
H174        H  0.26983723  0.49292660  0.10632732     0.07600
H175        H  0.24470131  0.43563970  0.22842821     0.08800
Cu176      Cu  0.19337833  0.98596039  0.17192683     0.44200
Cu177      Cu  0.26649610  0.50825378  0.27473460     0.42000
Cu178      Cu  0.21504271  0.03053800  0.27539114     0.43900
N179        N  0.22761229  0.03565947  0.17655493    -0.34800
N180        N  0.23624690  0.05250550  0.21412811    -0.29000
C181        C  0.26006720  0.08377477  0.20498099    -0.05100
C182        C  0.26652567  0.08656483  0.15939948     0.07100
C183        C  0.24542588  0.05548974  0.14271747     0.00900
H184        H  0.27170467  0.10296231  0.22965073     0.08500
H185        H  0.24334089  0.04751449  0.10850540     0.07600
N186        N  0.19163523  0.99996815  0.33060613    -0.36200
N187        N  0.27079903  0.53478914  0.33166621    -0.28400
C188        C  0.26473910  0.52250500  0.37375068    -0.03700
C189        C  0.17654426  0.98138848  0.40010944     0.04900
C190        C  0.19483494  0.00929816  0.37361880     0.03000
H191        H  0.25678251  0.49702366  0.38286159     0.08100
H192        H  0.20995874  0.03445537  0.38463436     0.07000
C193        C  0.18892778  0.00428351  0.47663801    -0.16500
C194        C  0.17334374  0.97831548  0.44941762    -0.31700
H195        H  0.28335674  0.59435320  0.46398292     0.12500
H196        H  0.15808226  0.95374321  0.46352149     0.13000
C197        C  0.28776371  0.29658209  0.47959904    -0.16500
C198        C  0.29525083  0.27795800  0.45405574    -0.31700
H199        H  0.28156141  0.31420913  0.46405094     0.12500
H200        H  0.30110268  0.26008303  0.46960094     0.13000
C201        C  0.25485317  0.39904286  0.94172708    -0.13500
C202        C  0.22620943  0.39383727  0.91793251     0.08700
C203        C  0.19974304  0.39135758  0.94259770    -0.13500
C204        C  0.20033833  0.39010878  0.98935884    -0.13500
C205        C  0.22736307  0.39115194  0.01309131     0.08700
C206        C  0.25539494  0.39765160  0.98861955    -0.13500
H207        H  0.27685667  0.40390594  0.92415176     0.12700
H208        H  0.17852130  0.39069571  0.92600308     0.12700
H209        H  0.17959757  0.38871408  0.00669487     0.12700
H210        H  0.27779063  0.40154054  0.00566218     0.12700
C211        C  0.48980265  0.18701599  0.45266778    -0.16500
C212        C  0.46438683  0.18095942  0.47890880    -0.31700
H213        H  0.09708585  0.30317642  0.46886242     0.12500
H214        H  0.44020165  0.17318249  0.46406474     0.13000
C215        C  0.29289373  0.15949378  0.94448130    -0.13500
C216        C  0.31304291  0.15124626  0.91976130     0.08700
C217        C  0.33056841  0.13800863  0.94338403    -0.13500
C218        C  0.33115818  0.13694499  0.99023533    -0.13500
C219        C  0.31414252  0.14895939  0.01503979     0.08700
C220        C  0.29336826  0.15829017  0.99135527    -0.13500
H221        H  0.27659196  0.16683198  0.92770801     0.12700
H222        H  0.34381691  0.12823334  0.92582304     0.12700
H223        H  0.34494393  0.12655290  0.00689992     0.12700
H224        H  0.27732432  0.16467933  0.00889305     0.12700
C225        C  0.35211137  0.73004369  0.86733846     0.86400
C226        C  0.38626406  0.74995706  0.84605934    -0.53900
C227        C  0.38588412  0.74960394  0.80028614     0.09300
C228        C  0.35079826  0.73006117  0.77971755     0.20200
C229        C  0.33216740  0.74528367  0.84578570    -0.54600
C230        C  0.33089663  0.74487706  0.79996382     0.09400
C231        C  0.33721092  0.69553579  0.84721430    -0.54100
C232        C  0.33638065  0.69534103  0.80140651     0.10000
H233        H  0.40886980  0.76290777  0.86566339     0.14500
H234        H  0.35027781  0.72998467  0.74263375     0.00200
H235        H  0.32007885  0.75556335  0.86501512     0.14800
H236        H  0.32800998  0.67324234  0.86781136     0.14600
N237        N  0.45214221  0.77878341  0.71841030    -0.27400
N238        N  0.46929882  0.78471701  0.75626797    -0.35300
C239        C  0.44863119  0.77627411  0.79085073     0.00900
C240        C  0.41674354  0.76429696  0.77406894     0.07000
C241        C  0.41998674  0.76624637  0.72787097    -0.06100
H242        H  0.45629003  0.77774615  0.82562540     0.07600
H243        H  0.40044496  0.75841269  0.70288179     0.08800
Cu244      Cu  0.51979464  0.80196326  0.75888668     0.44200
Cu245      Cu  0.47397495  0.78632502  0.65639770     0.42000
Cu246      Cu  0.98773066  0.73720221  0.65245221     0.43900
N247        N  0.99433593  0.74626294  0.75220372    -0.34800
N248        N  0.01069058  0.75516976  0.71421117    -0.29000
C249        C  0.04281598  0.77632858  0.72329037    -0.05100
C250        C  0.04681771  0.78087047  0.76927823     0.07100
C251        C  0.01543104  0.76141817  0.78628417     0.00900
H252        H  0.06180859  0.78721965  0.69827274     0.08500
H253        H  0.00820353  0.75814120  0.82098545     0.07600
N254        N  0.95747462  0.71533592  0.59670443    -0.36200
N255        N  0.50055255  0.79273973  0.59881476    -0.28400
C256        C  0.48823839  0.78705916  0.55675771    -0.03700
C257        C  0.51336644  0.79325204  0.52789671     0.04900
C258        C  0.96679746  0.71908068  0.55365361     0.03000
H259        H  0.46268773  0.77868223  0.54787889     0.08100
H260        H  0.99190971  0.73437462  0.54267914     0.07000
C261        C  0.11228229  0.82251394  0.86290181     0.86400
C262        C  0.07811747  0.80062207  0.84135577    -0.53900
C263        C  0.07766943  0.80109073  0.79555351     0.09300
C264        C  0.11199504  0.82344284  0.77521174     0.20200
C265        C  0.13395245  0.81001275  0.84258887    -0.54600
C266        C  0.13430014  0.81078194  0.79682201     0.09400
C267        C  0.12435658  0.85687686  0.84191517    -0.54100
C268        C  0.12430662  0.85768352  0.79605398     0.10000
H269        H  0.05630328  0.78490830  0.86050333     0.14500
H270        H  0.11197358  0.82395737  0.73809700     0.00200
H271        H  0.14786092  0.80132493  0.86293656     0.14800
H272        H  0.13232004  0.87865151  0.86210480     0.14600
N273        N  0.28374506  0.76552088  0.71729089    -0.27400
N274        N  0.27161391  0.76884765  0.75511002    -0.35300
C275        C  0.28706872  0.76297476  0.78983157     0.00900
C276        C  0.31009074  0.75541054  0.77335840     0.07000
C277        C  0.30719950  0.75722602  0.72708048    -0.06100
H278        H  0.28111753  0.76323223  0.82453841     0.07600
H279        H  0.32071119  0.75239253  0.70225736     0.08800
Cu280      Cu  0.23313885  0.77932462  0.75838057     0.44200
Cu281      Cu  0.26656556  0.77171797  0.65453392     0.42000
Cu282      Cu  0.19611823  0.78663443  0.65476340     0.43900
N283        N  0.19395056  0.78890841  0.75469060    -0.34800
N284        N  0.18021618  0.79150544  0.71662860    -0.29000
C285        C  0.15654778  0.79907511  0.72547334    -0.05100
C286        C  0.15523656  0.80130570  0.77145924     0.07100
C287        C  0.17931604  0.79463056  0.78883094     0.00900
H288        H  0.14190322  0.80322654  0.70013476     0.08500
H289        H  0.18641751  0.79475263  0.82363945     0.07600
N290        N  0.21901483  0.78455533  0.59749509    -0.36200
N291        N  0.24452772  0.77942350  0.59714012    -0.28400
C292        C  0.25332907  0.78009717  0.55436380    -0.03700
C293        C  0.23231105  0.78592936  0.52659211     0.04900
C294        C  0.21096860  0.78862982  0.55513413     0.03000
H295        H  0.27349541  0.77651699  0.54449430     0.08100
H296        H  0.19096200  0.79320609  0.54580412     0.07000
N297        N  0.15060461  0.92624750  0.71445199    -0.27400
N298        N  0.16069234  0.94246033  0.75248917    -0.35300
C299        C  0.15232329  0.92070330  0.78679072     0.00900
C300        C  0.13621348  0.88903059  0.76987480     0.07000
C301        C  0.13554433  0.89350924  0.72373647    -0.06100
H302        H  0.15866144  0.92768778  0.82143482     0.07600
H303        H  0.12548541  0.87450826  0.69866200     0.08800
Cu304      Cu  0.28601823  0.56179300  0.75874206     0.44200
Cu305      Cu  0.16022901  0.95038329  0.65216295     0.42000
Cu306      Cu  0.29258393  0.60685569  0.65776713     0.43900
N307        N  0.30299037  0.61214517  0.75726075    -0.34800
N308        N  0.30552430  0.62895989  0.71983132    -0.29000
C309        C  0.31765871  0.66100912  0.72955130    -0.05100
C310        C  0.32296550  0.66452542  0.77547393     0.07100
C311        C  0.31330821  0.63294172  0.79191210     0.00900
H312        H  0.32219053  0.68017401  0.70486410     0.08500
H313        H  0.31399660  0.62552482  0.82640363     0.07600
N314        N  0.27984687  0.57976665  0.59951515    -0.36200
N315        N  0.17658122  0.98171299  0.59599354    -0.28400
C316        C  0.17020297  0.97286503  0.55270482    -0.03700
C317        C  0.27359148  0.56652624  0.52790224     0.04900
C318        C  0.28315658  0.59206716  0.55751051     0.03000
H319        H  0.15507112  0.94769963  0.54172324     0.08100
H320        H  0.29263786  0.61793446  0.54913167     0.07000
C321        C  0.35530653  0.72609917  0.06514644     0.86400
C322        C  0.33863858  0.69099238  0.08537038    -0.53900
C323        C  0.33880687  0.68975387  0.13125432     0.09300
C324        C  0.35571205  0.72408662  0.15283302     0.19700
C325        C  0.33802327  0.74304900  0.08650620    -0.54600
C326        C  0.33754892  0.74156252  0.13221367     0.09400
C327        C  0.39004327  0.74346068  0.08657077    -0.54100
C328        C  0.39048455  0.74207504  0.13242246     0.10000
H329        H  0.32769162  0.66910706  0.06481925     0.14500
H330        H  0.35583033  0.72316679  0.18993690     0.00200
H331        H  0.32710310  0.75531273  0.06705458     0.14800
H332        H  0.41237091  0.75573739  0.06712001     0.14600
N333        N  0.45812937  0.76625788  0.21464598    -0.27400
N334        N  0.47439184  0.77339793  0.17667186    -0.35300
C335        C  0.45311504  0.76679385  0.14215801     0.00900
C336        C  0.42170383  0.75474647  0.15891477     0.07000
C337        C  0.42585577  0.75472971  0.20514959    -0.06100
H338        H  0.46010346  0.76972828  0.10737320     0.07600
H339        H  0.40686725  0.74647499  0.23010537     0.08800
Cu340      Cu  0.52449330  0.79003176  0.17240702     0.44200
Cu341      Cu  0.48138548  0.77220510  0.27699329     0.42000
Cu342      Cu  0.00040953  0.72972274  0.27246508     0.43900
N343        N  0.00411889  0.73497055  0.17248260    -0.34800
N344        N  0.02150779  0.74525040  0.21009074    -0.29000
C345        C  0.05302609  0.76727200  0.20027832    -0.05100
C346        C  0.05563902  0.77105506  0.15410995     0.07100
C347        C  0.02405883  0.75009236  0.13768436     0.00900
H348        H  0.07235482  0.77989660  0.22505810     0.08500
H349        H  0.01580737  0.74650405  0.10304996     0.07600
N350        N  0.97340224  0.71323043  0.33067793    -0.36200
N351        N  0.51188716  0.78229791  0.33349461    -0.28400
C352        C  0.50352874  0.78198334  0.37639232    -0.03700
C353        C  0.53134400  0.79121143  0.40332917     0.04900
C354        C  0.98544238  0.72179793  0.37255398     0.03000
H355        H  0.47909753  0.77587993  0.38684371     0.08100
H356        H  0.01113060  0.73823815  0.38086658     0.07000
C357        C  0.11733268  0.81918618  0.06039408     0.86400
C358        C  0.12622937  0.85233833  0.08125324    -0.53900
C359        C  0.12738174  0.85215336  0.12703561     0.09300
C360        C  0.11903394  0.81833492  0.14798002     0.20200
C361        C  0.14255154  0.81003748  0.08087732    -0.54600
C362        C  0.14377133  0.80989091  0.12680324     0.09400
C363        C  0.08462366  0.79388491  0.08195567    -0.54100
C364        C  0.08517307  0.79353236  0.12765747     0.10000
H365        H  0.13170652  0.87421222  0.06116859     0.14500
H366        H  0.11975559  0.81815120  0.18506561     0.00200
H367        H  0.15807755  0.80430179  0.06080789     0.14800
H368        H  0.06304567  0.77697816  0.06271392     0.14600
N369        N  0.19658503  0.79784862  0.20964641    -0.27400
N370        N  0.20779261  0.79285093  0.17212933    -0.35300
C371        C  0.19070666  0.79602958  0.13716064     0.00900
C372        C  0.16749414  0.80340896  0.15330859     0.07000
C373        C  0.17202967  0.80439360  0.19950294    -0.06100
H374        H  0.19508415  0.79327372  0.10255082     0.07600
H375        H  0.15865235  0.80958238  0.22410948     0.08800
Cu376      Cu  0.24580762  0.78187183  0.17021627     0.44200
Cu377      Cu  0.21536844  0.79506187  0.27271354     0.42000
Cu378      Cu  0.28072069  0.77248438  0.27464607     0.43900
N379        N  0.28292541  0.76954820  0.17488962    -0.34800
N380        N  0.29561324  0.76548066  0.21303747    -0.29000
C381        C  0.31765973  0.75565958  0.20415106    -0.05100
C382        C  0.31897262  0.75363881  0.15806684     0.07100
C383        C  0.29659178  0.76267111  0.14076904     0.00900
H384        H  0.33117476  0.74986266  0.22943099     0.08500
H385        H  0.28967895  0.76309373  0.10599048     0.07600
N386        N  0.26125282  0.78092380  0.33119745    -0.36200
N387        N  0.23769353  0.78899239  0.33087208    -0.28400
C388        C  0.23072115  0.79181476  0.37350585    -0.03700
C389        C  0.25092638  0.78521159  0.40184931     0.04900
C390        C  0.26990228  0.77850503  0.37384040     0.03000
H391        H  0.21214480  0.79793690  0.38291409     0.08100
H392        H  0.28843272  0.77190009  0.38375496     0.07000
N393        N  0.15191739  0.91741042  0.20937188    -0.27400
N394        N  0.16375163  0.93514487  0.17231774    -0.35300
C395        C  0.15590256  0.91479442  0.13748094     0.00900
C396        C  0.13839032  0.88249986  0.15330444     0.07000
C397        C  0.13636265  0.88509870  0.19916783    -0.06100
H398        H  0.16378796  0.92299513  0.10349165     0.07600
H399        H  0.12504018  0.86510259  0.22348443     0.08800
Cu400      Cu  0.28714781  0.55499586  0.17250008     0.44200
Cu401      Cu  0.15983392  0.93940639  0.27140836     0.42000
Cu402      Cu  0.29368426  0.59732920  0.27538185     0.43900
N403        N  0.30390948  0.60526394  0.17554203    -0.34800
N404        N  0.30669208  0.62108474  0.21294558    -0.29000
C405        C  0.31931905  0.65351160  0.20315468    -0.05100
C406        C  0.32459374  0.65823659  0.15733818     0.07100
C407        C  0.31447512  0.62702643  0.14106275     0.00900
H408        H  0.32430516  0.67216008  0.22768958     0.08500
H409        H  0.31523819  0.62052231  0.10676956     0.07600
N410        N  0.28041584  0.56672617  0.33231461    -0.36200
N411        N  0.17213928  0.96752326  0.32888455    -0.28400
C412        C  0.16251116  0.95550714  0.37057990    -0.03700
C413        C  0.27079752  0.54771513  0.40244111     0.04900
C414        C  0.28070863  0.57551033  0.37506072     0.03000
H415        H  0.14691126  0.92961161  0.37890138     0.08100
H416        H  0.28794466  0.60033905  0.38524654     0.07000
C417        C  0.27520425  0.56993674  0.47847108    -0.16500
C418        C  0.26787997  0.54438862  0.45174036    -0.31700
H419        H  0.20421718  0.02884969  0.46253512     0.12500
H420        H  0.25993039  0.52003645  0.46629916     0.13000
C421        C  0.23152606  0.78836356  0.47712536    -0.16500
C422        C  0.25229826  0.78416180  0.45133726    -0.31700
H423        H  0.21291373  0.79316931  0.46173715     0.12500
H424        H  0.27067464  0.77902797  0.46676048     0.13000
C425        C  0.14385095  0.83395862  0.93725705    -0.13500
C426        C  0.11359431  0.82309048  0.91409325     0.08700
C427        C  0.08544080  0.81479843  0.93943191    -0.13500
C428        C  0.08679795  0.81393279  0.98615861    -0.13500
C429        C  0.11621350  0.82088272  0.00926240     0.08700
C430        C  0.14513693  0.83277125  0.98414055    -0.13500
H431        H  0.16657070  0.84298395  0.91905532     0.12700
H432        H  0.06230458  0.80964540  0.92364695     0.12700
H433        H  0.06465378  0.80819355  0.00398562     0.12700
H434        H  0.16883991  0.84115811  0.00062695     0.12700
C435        C  0.53510282  0.79525616  0.45241608    -0.16500
C436        C  0.50984821  0.78942919  0.47878702    -0.31700
H437        H  0.98684799  0.72642289  0.46530794     0.12500
H438        H  0.48555003  0.78141479  0.46418034     0.13000
C439        C  0.32611065  0.72580653  0.94339823    -0.13500
C440        C  0.35267169  0.72865256  0.91856020     0.08700
C441        C  0.37817350  0.72649058  0.94210004    -0.13500
C442        C  0.37897918  0.72543628  0.98898915    -0.13500
C443        C  0.35416923  0.72627358  0.01388453     0.08700
C444        C  0.32678989  0.72449155  0.99021233    -0.13500
H445        H  0.30433004  0.72393812  0.92691832     0.12700
H446        H  0.39759877  0.72550009  0.92432336     0.12700
H447        H  0.39899549  0.72368379  0.00556315     0.12700
H448        H  0.30554704  0.72177989  0.00772305     0.12700
C449        C  0.88750618  0.18793138  0.87163899     0.86400
C450        C  0.92162251  0.20890763  0.85071850    -0.53900
C451        C  0.92134758  0.20929483  0.80495590     0.09300
C452        C  0.88653171  0.18885168  0.78412364     0.20200
C453        C  0.86684788  0.20253439  0.85041880    -0.54600
C454        C  0.86578402  0.20250218  0.80460575     0.09400
C455        C  0.87351300  0.15371521  0.85090771    -0.54100
C456        C  0.87270537  0.15398812  0.80509904     0.10000
H457        H  0.94399251  0.22266607  0.87051091     0.14500
H458        H  0.88616876  0.18925510  0.74707713     0.00200
H459        H  0.85403683  0.21194378  0.86982481     0.14800
H460        H  0.86432520  0.13123750  0.87110069     0.14600
N461        N  0.98699339  0.24954928  0.72268010    -0.27400
N462        N  0.00436424  0.25901184  0.76036945    -0.35300
C463        C  0.98387335  0.24632669  0.79517206     0.00900
C464        C  0.95187792  0.22790581  0.77862600     0.07000
C465        C  0.95485798  0.23052119  0.73241125    -0.06100
H466        H  0.99188735  0.25029622  0.82989088     0.07600
H467        H  0.93529239  0.21935393  0.70755492     0.08800
Cu468      Cu  0.05509715  0.28884293  0.76218979     0.44200
Cu469      Cu  0.00887164  0.26267894  0.66052059     0.42000
Cu470      Cu  0.51753038  0.20808450  0.65472625     0.43900
N471        N  0.52495789  0.21233527  0.75496540    -0.34800
N472        N  0.54131861  0.21874975  0.71716968    -0.29000
C473        C  0.57391758  0.23359603  0.72688506    -0.05100
C474        C  0.57816071  0.23650185  0.77309253     0.07100
C475        C  0.54648080  0.22266481  0.78959052     0.00900
H476        H  0.59303005  0.24226271  0.70205313     0.08500
H477        H  0.53944483  0.22139882  0.82413233     0.07600
N478        N  0.48670896  0.19484427  0.59812204    -0.36200
N479        N  0.03604745  0.27551279  0.60242400    -0.28400
C480        C  0.02366862  0.26728725  0.56064747    -0.03700
C481        C  0.04952466  0.27976640  0.53116391     0.04900
C482        C  0.49549677  0.19515091  0.55540809     0.03000
H483        H  0.99764524  0.25307341  0.55236716     0.08100
H484        H  0.52033934  0.20261383  0.54522933     0.07000
C485        C  0.64434023  0.27444668  0.86676559     0.86400
C486        C  0.60999415  0.25274469  0.84540732    -0.53900
C487        C  0.60941840  0.25352944  0.79955327     0.09300
C488        C  0.64371091  0.27545130  0.77907867     0.20200
C489        C  0.66566989  0.26171973  0.84618243    -0.54600
C490        C  0.66585764  0.26253212  0.80047130     0.09400
C491        C  0.65650355  0.30888854  0.84581312    -0.54100
C492        C  0.65599966  0.30965156  0.79992486     0.10000
H493        H  0.58801130  0.23777948  0.86473725     0.14500
H494        H  0.64357903  0.27598261  0.74196339     0.00200
H495        H  0.67925492  0.25251393  0.86623679     0.14800
H496        H  0.66412972  0.33059126  0.86602210     0.14600
N497        N  0.81565107  0.21844448  0.72177962    -0.27400
N498        N  0.80459011  0.22345818  0.75942217    -0.35300
C499        C  0.82148798  0.21985262  0.79422791     0.00900
C500        C  0.84432337  0.21201258  0.77791993     0.07000
C501        C  0.83987850  0.21135883  0.73172262    -0.06100
H502        H  0.81648973  0.22159505  0.82892445     0.07600
H503        H  0.85257366  0.20530363  0.70708350     0.08800
Cu504      Cu  0.76531730  0.23247797  0.76247099     0.44200
Cu505      Cu  0.79589402  0.22021259  0.65910508     0.42000
Cu506      Cu  0.72475449  0.23378326  0.65919552     0.43900
N507        N  0.72528950  0.24051006  0.75856267    -0.34800
N508        N  0.71029423  0.24112975  0.72067117    -0.29000
C509        C  0.68649735  0.24854601  0.72941931    -0.05100
C510        C  0.68645378  0.25266740  0.77516449     0.07100
C511        C  0.71137018  0.24729899  0.79248923     0.00900
H512        H  0.67084049  0.25122323  0.70419759     0.08500
H513        H  0.71960176  0.24915015  0.82704017     0.07600
N514        N  0.74643645  0.22972057  0.60199750    -0.36200
N515        N  0.77217667  0.22496340  0.60162532    -0.28400
C516        C  0.78039798  0.22471324  0.55880112    -0.03700
C517        C  0.75875917  0.22959928  0.53106588     0.04900
C518        C  0.73764363  0.23263013  0.55961638     0.03000
H519        H  0.80080800  0.22153970  0.54889876     0.08100
H520        H  0.71751350  0.23701601  0.55029370     0.07000
N521        N  0.67192225  0.37606003  0.71800687    -0.27400
N522        N  0.68024371  0.39258000  0.75586541    -0.35300
C523        C  0.67627484  0.37175921  0.79022093     0.00900
C524        C  0.66485322  0.34039689  0.77352400     0.07000
C525        C  0.66236846  0.34408651  0.72747064    -0.06100
H526        H  0.68133487  0.37912955  0.82487114     0.07600
H527        H  0.65402893  0.32500431  0.70261673     0.08800
Cu528      Cu  0.79920784  0.01984947  0.76022581     0.44200
Cu529      Cu  0.67460591  0.39868463  0.65562102     0.42000
Cu530      Cu  0.81892354  0.06837625  0.65966738     0.43900
N531        N  0.82860697  0.07079842  0.75933233    -0.34800
N532        N  0.83573422  0.08877559  0.72206678    -0.29000
C533        C  0.85334743  0.12093985  0.73233805    -0.05100
C534        C  0.85751138  0.12339659  0.77847915     0.07100
C535        C  0.84148788  0.09101679  0.79445355     0.00900
H536        H  0.86149324  0.14091043  0.70791296     0.08500
H537        H  0.83833471  0.08266195  0.82906133     0.07600
N538        N  0.79897004  0.04267158  0.60118382    -0.36200
N539        N  0.68245387  0.42889284  0.59890283    -0.28400
C540        C  0.67779610  0.41971681  0.55567101    -0.03700
C541        C  0.78832592  0.03032141  0.52948153     0.04900
C542        C  0.80529547  0.05553668  0.55939945     0.03000
H543        H  0.66878779  0.39465439  0.54488767     0.08100
H544        H  0.82170091  0.08132945  0.55136984     0.07000
C545        C  0.89043235  0.18502937  0.06901236     0.86400
C546        C  0.87616862  0.15031339  0.08984142    -0.53900
C547        C  0.87616446  0.14947087  0.13569102     0.09300
C548        C  0.89119170  0.18400163  0.15663360     0.19700
C549        C  0.87096046  0.19989654  0.08991065    -0.54600
C550        C  0.87077954  0.19891353  0.13561940     0.09400
C551        C  0.92505967  0.20490597  0.09009047    -0.54100
C552        C  0.92574845  0.20440079  0.13595390     0.10000
H553        H  0.86596564  0.12831365  0.06958681     0.14500
H554        H  0.89146839  0.18355074  0.19372889     0.00200
H555        H  0.85855897  0.21057312  0.07026530     0.14800
H556        H  0.94703617  0.21877185  0.07029009     0.14600
N557        N  0.99413385  0.24337767  0.21764607    -0.27400
N558        N  0.01000971  0.25441977  0.17948051    -0.35300
C559        C  0.98830629  0.24241754  0.14518600     0.00900
C560        C  0.95700356  0.22270770  0.16222657     0.07000
C561        C  0.96167575  0.22394780  0.20844946    -0.06100
H562        H  0.99509843  0.24775550  0.11035177     0.07600
H563        H  0.94298974  0.21159288  0.23359802     0.08800
Cu564      Cu  0.06055811  0.28519615  0.17454219     0.44200
Cu565      Cu  0.01839017  0.25579035  0.27985051     0.42000
Cu566      Cu  0.52666546  0.19616862  0.27412562     0.43900
N567        N  0.53128043  0.20258455  0.17410822    -0.34800
N568        N  0.54846457  0.20770682  0.21185060    -0.29000
C569        C  0.58087615  0.22350301  0.20251887    -0.05100
C570        C  0.58425862  0.22845726  0.15656867     0.07100
C571        C  0.55222977  0.21472923  0.13972195     0.00900
H572        H  0.60043126  0.23182316  0.22754863     0.08500
H573        H  0.54463128  0.21523279  0.10528381     0.07600
N574        N  0.49982226  0.18713314  0.33207904    -0.36200
N575        N  0.04954090  0.27339573  0.33604626    -0.28400
C576        C  0.04065146  0.26904100  0.37933706    -0.03700
C577        C  0.06894649  0.28562747  0.40570753     0.04900
C578        C  0.51177647  0.19091646  0.37430281     0.03000
H579        H  0.01543219  0.25515510  0.39048250     0.08100
H580        H  0.53721829  0.19875085  0.38317317     0.07000
C581        C  0.64849473  0.27212915  0.06440221     0.86400
C582        C  0.65861402  0.30568100  0.08508429    -0.53900
C583        C  0.65897220  0.30543838  0.13092144     0.09300
C584        C  0.64907269  0.27124276  0.15203971     0.20200
C585        C  0.67225316  0.26142003  0.08578182    -0.54600
C586        C  0.67294755  0.26123936  0.13169116     0.09400
C587        C  0.61506851  0.24801265  0.08528300    -0.54100
C588        C  0.61502345  0.24782263  0.13096257     0.10000
H589        H  0.66465662  0.32761113  0.06482080     0.14500
H590        H  0.64929156  0.27099647  0.18914170     0.00200
H591        H  0.68709492  0.25445161  0.06629318     0.14800
H592        H  0.59320707  0.23221019  0.06562817     0.14600
N593        N  0.72316870  0.24553386  0.21508959    -0.27400
N594        N  0.73594299  0.24291643  0.17745018    -0.35300
C595        C  0.71982107  0.24749006  0.14245511     0.00900
C596        C  0.69560260  0.25338873  0.15858018     0.07000
C597        C  0.69849708  0.25196576  0.20491451    -0.06100
H598        H  0.72581092  0.24704856  0.10782114     0.07600
H599        H  0.68404642  0.25564441  0.22952528     0.08800
Cu600      Cu  0.77520078  0.23390703  0.17487414     0.44200
Cu601      Cu  0.74100654  0.24066319  0.27804848     0.42000
Cu602      Cu  0.81074364  0.22446118  0.27838814     0.43900
N603        N  0.81345065  0.22326043  0.17861836    -0.34800
N604        N  0.82648695  0.21946490  0.21659496    -0.29000
C605        C  0.84944410  0.21097642  0.20748369    -0.05100
C606        C  0.85098593  0.20948531  0.16140368     0.07100
C607        C  0.82778267  0.21744663  0.14428298     0.00900
H608        H  0.86338156  0.20567021  0.23266145     0.08500
H609        H  0.82088697  0.21795919  0.10951718     0.07600
N610        N  0.78928192  0.22911578  0.33535309    -0.36200
N611        N  0.76408620  0.23475094  0.33564700    -0.28400
C612        C  0.75628916  0.23569859  0.37849480    -0.03700
C613        C  0.77765029  0.23039860  0.40627510     0.04900
C614        C  0.79815293  0.22637636  0.37775075     0.03000
H615        H  0.73646169  0.23980777  0.38840441     0.08100
H616        H  0.81798278  0.22153219  0.38710429     0.07000
N617        N  0.67424969  0.36907615  0.21258753    -0.27400
N618        N  0.68490865  0.38726179  0.17563994    -0.35300
C619        C  0.68135374  0.36764343  0.14125919     0.00900
C620        C  0.66779331  0.33537309  0.15725155     0.07000
C621        C  0.66369569  0.33726321  0.20276041    -0.06100
H622        H  0.68822551  0.37638316  0.10716460     0.07600
H623        H  0.65340568  0.31706367  0.22691266     0.08800
Cu624      Cu  0.79877282  0.01401356  0.17454469     0.44200
Cu625      Cu  0.67483120  0.38966352  0.27376074     0.42000
Cu626      Cu  0.81664458  0.05877667  0.27851025     0.43900
N627        N  0.82935609  0.06477269  0.17932970    -0.34800
N628        N  0.83579897  0.08133026  0.21698579    -0.29000
C629        C  0.85450543  0.11386175  0.20771468    -0.05100
C630        C  0.86007441  0.11800329  0.16195835     0.07100
C631        C  0.84377673  0.08623909  0.14521209     0.00900
H632        H  0.86229901  0.13302875  0.23234125     0.08500
H633        H  0.84136823  0.07912941  0.11053071     0.07600
N634        N  0.79347266  0.02920239  0.33424950    -0.36200
N635        N  0.67986597  0.41612171  0.33125883    -0.28400
C636        C  0.67283722  0.40336762  0.37309312    -0.03700
C637        C  0.77781877  0.01098715  0.40363438     0.04900
C638        C  0.79706757  0.03865191  0.37723396     0.03000
H639        H  0.66320667  0.37749463  0.38157668     0.08100
H640        H  0.81294659  0.06368210  0.38825476     0.07000
C641        C  0.79022856  0.03383830  0.48012758    -0.16500
C642        C  0.77442649  0.00796194  0.45285296    -0.31700
H643        H  0.69762692  0.47566425  0.46495526     0.12500
H644        H  0.75887724  0.98342202  0.46686266     0.13000
C645        C  0.75767357  0.23177668  0.48167442    -0.16500
C646        C  0.77899051  0.22864700  0.45568601    -0.31700
H647        H  0.73858201  0.23593638  0.46651264     0.12500
H648        H  0.79801616  0.22438116  0.47084198     0.13000
C649        C  0.67533358  0.28341114  0.94148793    -0.13500
C650        C  0.64566914  0.27502015  0.91796134     0.08700
C651        C  0.61827285  0.26983897  0.94287580    -0.13500
C652        C  0.61942612  0.26940035  0.98966743    -0.13500
C653        C  0.64785270  0.27369625  0.01321021     0.08700
C654        C  0.67637540  0.28259384  0.98837950    -0.13500
H655        H  0.69784918  0.29048571  0.92368521     0.12700
H656        H  0.59593349  0.26662797  0.92650701     0.12700
H657        H  0.59791280  0.26589940  0.00726835     0.12700
H658        H  0.69965168  0.28913467  0.00503164     0.12700
C659        C  0.07232765  0.28912482  0.45488564    -0.16500
C660        C  0.04625291  0.27601086  0.48202871    -0.31700
H661        H  0.51396143  0.19464146  0.46751300     0.12500
H662        H  0.02149134  0.26210878  0.46801756     0.13000
C663        C  0.86053217  0.18193640  0.94721487    -0.13500
C664        C  0.88778396  0.18618658  0.92274262     0.08700
C665        C  0.91396340  0.18551495  0.94654204    -0.13500
C666        C  0.91469354  0.18479903  0.99340314    -0.13500
C667        C  0.88918331  0.18456447  0.01787708     0.08700
C668        C  0.86117955  0.18103377  0.99398360    -0.13500
H669        H  0.83833412  0.17879966  0.93046513     0.12700
H670        H  0.93403200  0.18558396  0.92902446     0.12700
H671        H  0.93530670  0.18439554  0.01035307     0.12700
H672        H  0.83943440  0.17724053  0.01122633     0.12700
C673        C  0.77734232  0.61127064  0.86923333     0.86400
C674        C  0.81171135  0.62817946  0.84795978    -0.53900
C675        C  0.81122090  0.62894844  0.80216451     0.09300
C676        C  0.77608527  0.61260178  0.78165192     0.20200
C677        C  0.76102715  0.63049777  0.84860811    -0.54600
C678        C  0.76038712  0.63134362  0.80275418     0.09400
C679        C  0.75885914  0.57707951  0.84830052    -0.54100
C680        C  0.75800309  0.57744918  0.80252138     0.10000
H681        H  0.83447273  0.63970536  0.86748054     0.14500
H682        H  0.77559821  0.61311869  0.74456422     0.00200
H683        H  0.75217124  0.64358217  0.86852962     0.14800
H684        H  0.74736867  0.55453345  0.86845925     0.14600
N685        N  0.87655419  0.66789411  0.71917047    -0.27400
N686        N  0.89381131  0.67987384  0.75650847    -0.35300
C687        C  0.87348681  0.66747507  0.79157098     0.00900
C688        C  0.84176024  0.64667790  0.77556649     0.07000
C689        C  0.84469943  0.64763014  0.72939154    -0.06100
H690        H  0.88128749  0.67375569  0.82607008     0.07600
H691        H  0.82523073  0.63474109  0.70488414     0.08800
Cu692      Cu  0.94412633  0.71325381  0.75748815     0.44200
Cu693      Cu  0.89799449  0.68028101  0.65666178     0.42000
Cu694      Cu  0.56272734  0.81359432  0.65459884     0.43900
N695        N  0.56997037  0.81827005  0.75501824    -0.34800
N696        N  0.58586712  0.82254362  0.71722852    -0.29000
C697        C  0.61783804  0.83270120  0.72693048    -0.05100
C698        C  0.62225711  0.83489933  0.77311191     0.07100
C699        C  0.59129736  0.82557119  0.78965761     0.00900
H700        H  0.63629052  0.83772555  0.70210250     0.08500
H701        H  0.58446493  0.82383611  0.82437002     0.07600
N702        N  0.53240377  0.80230551  0.59789223    -0.36200
N703        N  0.92524049  0.69509648  0.59850623    -0.28400
C704        C  0.91328174  0.68551203  0.55681755    -0.03700
C705        C  0.93905792  0.70027595  0.52724105     0.04900
C706        C  0.54112345  0.80291980  0.55508137     0.03000
H707        H  0.88761633  0.66884974  0.54865788     0.08100
H708        H  0.56578305  0.80970344  0.54482744     0.07000
C709        C  0.68757012  0.85268378  0.86648322     0.86400
C710        C  0.65367726  0.84372730  0.84540834    -0.53900
C711        C  0.65293206  0.84405570  0.79956474     0.09300
C712        C  0.68637436  0.85318268  0.77884415     0.20200
C713        C  0.69582250  0.82782045  0.84583429    -0.54600
C714        C  0.69544232  0.82803453  0.80008181     0.09400
C715        C  0.71170320  0.88611346  0.84531902    -0.54100
C716        C  0.71113325  0.88672818  0.79944896     0.10000
H717        H  0.63182714  0.83648188  0.86493516     0.14500
H718        H  0.68598678  0.85344885  0.74175428     0.00200
H719        H  0.70072168  0.81090502  0.86591912     0.14800
H720        H  0.72744521  0.90751385  0.86539667     0.14600
N721        N  0.73843797  0.67743799  0.72056499    -0.27400
N722        N  0.73498228  0.68949516  0.75834932    -0.35300
C723        C  0.74116260  0.67429467  0.79309777     0.00900
C724        C  0.74907405  0.65155702  0.77654459     0.07000
C725        C  0.74708606  0.65426862  0.73031442    -0.06100
H726        H  0.74092969  0.68027826  0.82779473     0.07600
H727        H  0.75220573  0.64099248  0.70544267     0.08800
Cu728      Cu  0.72394798  0.72743392  0.76135398     0.44200
Cu729      Cu  0.73267255  0.69458604  0.65787060     0.42000
Cu730      Cu  0.71076801  0.76023432  0.65748035     0.43900
N731        N  0.71272947  0.76535186  0.75736045    -0.34800
N732        N  0.70746135  0.77728643  0.71930903    -0.29000
C733        C  0.70064321  0.80147674  0.72829777    -0.05100
C734        C  0.70173488  0.80495789  0.77435140     0.07100
C735        C  0.70948806  0.78159372  0.79159661     0.00900
H736        H  0.69534172  0.81539677  0.70305620     0.08500
H737        H  0.71251754  0.77652746  0.82643973     0.07600
N738        N  0.71878377  0.74107646  0.60042459    -0.36200
N739        N  0.72673700  0.71742537  0.60036321    -0.28400
C740        C  0.73068093  0.71147006  0.55774900    -0.03700
C741        C  0.72494973  0.73245041  0.52976150     0.04900
C742        C  0.71750718  0.75079863  0.55796986     0.03000
H743        H  0.73736650  0.69331445  0.54817335     0.08100
H744        H  0.71167231  0.76994852  0.54835779     0.07000
N745        N  0.75238777  0.95445733  0.71735683    -0.27400
N746        N  0.76622657  0.96973154  0.75517959    -0.35300
C747        C  0.75427183  0.94800549  0.78952147     0.00900
C748        C  0.73165345  0.91735893  0.77288206     0.07000
C749        C  0.73114410  0.92239104  0.72684454    -0.06100
H750        H  0.76118843  0.95445095  0.82420403     0.07600
H751        H  0.71597435  0.90436443  0.70210021     0.08800
Cu752      Cu  0.69718351  0.44284933  0.76019083     0.44200
Cu753      Cu  0.76262805  0.97892876  0.65523612     0.42000
Cu754      Cu  0.70764471  0.48876068  0.65842768     0.43900
N755        N  0.71690721  0.49372410  0.75811778    -0.34800
N756        N  0.72120299  0.51098280  0.72059303    -0.29000
C757        C  0.73611913  0.54336780  0.73029933    -0.05100
C758        C  0.74142631  0.54660500  0.77628157     0.07100
C759        C  0.72880364  0.51451719  0.79270860     0.00900
H760        H  0.74290233  0.56300113  0.70557512     0.08500
H761        H  0.72894325  0.50672067  0.82713999     0.07600
N762        N  0.69434235  0.46124159  0.60031118    -0.36200
N763        N  0.77866168  0.01042542  0.59918606    -0.28400
C764        C  0.77158857  0.00198171  0.55584620    -0.03700
C765        C  0.68726791  0.44766950  0.52871397     0.04900
C766        C  0.69753268  0.47338808  0.55822698     0.03000
H767        H  0.75599738  0.97695872  0.54461245     0.08100
H768        H  0.70723796  0.49926480  0.54969865     0.07000
C769        C  0.78150258  0.60832814  0.06668156     0.86400
C770        C  0.76326559  0.57379846  0.08806020    -0.53900
C771        C  0.76416799  0.57335725  0.13388756     0.09300
C772        C  0.78360068  0.60809604  0.15433844     0.19700
C773        C  0.76669262  0.62775416  0.08789311    -0.54600
C774        C  0.76774278  0.62776001  0.13366734     0.09400
C775        C  0.81665497  0.62418996  0.08694258    -0.54100
C776        C  0.81795507  0.62415052  0.13279367     0.10000
H777        H  0.75053181  0.55162949  0.06819742     0.14500
H778        H  0.78444736  0.60791197  0.19145498     0.00200
H779        H  0.75744311  0.64150360  0.06830610     0.14800
H780        H  0.83863579  0.63565484  0.06672944     0.14600
N781        N  0.88699345  0.66112898  0.21352697    -0.27400
N782        N  0.90292332  0.67128049  0.17527218    -0.35300
C783        C  0.88104534  0.65928105  0.14110346     0.00900
C784        C  0.84965477  0.64062288  0.15844544     0.07000
C785        C  0.85444275  0.64241387  0.20459449    -0.06100
H786        H  0.88766232  0.66443623  0.10619088     0.07600
H787        H  0.83572335  0.63134718  0.22994460     0.08800
Cu788      Cu  0.95360446  0.70225016  0.17041689     0.44200
Cu789      Cu  0.91069809  0.67442291  0.27581792     0.42000
Cu790      Cu  0.56962101  0.79777087  0.27441086     0.43900
N791        N  0.57443909  0.80520619  0.17461491    -0.34800
N792        N  0.59111793  0.80782361  0.21217246    -0.29000
C793        C  0.62290560  0.81864665  0.20252196    -0.05100
C794        C  0.62639909  0.82301125  0.15651949     0.07100
C795        C  0.59508887  0.81420599  0.13996632     0.00900
H796        H  0.64192998  0.82308844  0.22732481     0.08500
H797        H  0.58771890  0.81452807  0.10537406     0.07600
N798        N  0.54357724  0.79124246  0.33229326    -0.36200
N799        N  0.94109378  0.69340054  0.33225342    -0.28400
C800        C  0.93179149  0.68887149  0.37537654    -0.03700
C801        C  0.95963648  0.70678781  0.40204418     0.04900
C802        C  0.55615858  0.79683277  0.37421979     0.03000
H803        H  0.90657394  0.67403281  0.38618449     0.08100
H804        H  0.58169778  0.80491817  0.38279865     0.07000
C805        C  0.69080890  0.84776316  0.06394323     0.86400
C806        C  0.71299073  0.88145782  0.08500293    -0.53900
C807        C  0.71337427  0.88101784  0.13077960     0.09300
C808        C  0.69131897  0.84638625  0.15150554     0.20200
C809        C  0.70268499  0.82473948  0.08498632    -0.54600
C810        C  0.70300104  0.82393271  0.13092662     0.09400
C811        C  0.65670963  0.83519114  0.08472688    -0.54100
C812        C  0.65687115  0.83467419  0.13044458     0.10000
H813        H  0.72677949  0.90379483  0.06497995     0.14500
H814        H  0.69158876  0.84595743  0.18857876     0.00200
H815        H  0.70921240  0.80963848  0.06527595     0.14800
H816        H  0.63419249  0.82650644  0.06493974     0.14600
N817        N  0.72019718  0.77474988  0.21445682    -0.27400
N818        N  0.72494424  0.76341095  0.17689331    -0.35300
C819        C  0.72012849  0.77936343  0.14183016     0.00900
C820        C  0.71182570  0.80195720  0.15785288     0.07000
C821        C  0.71211155  0.79829362  0.20419875    -0.06100
H822        H  0.72200684  0.77432315  0.10720082     0.07600
H823        H  0.70649237  0.81139097  0.22875777     0.08800
Cu824      Cu  0.73624528  0.72563141  0.17477444     0.44200
Cu825      Cu  0.72438653  0.75629676  0.27727213     0.42000
Cu826      Cu  0.74158817  0.68671061  0.27767125     0.43900
N827        N  0.74564932  0.68649696  0.17789401    -0.34800
N828        N  0.74779733  0.67206675  0.21556186    -0.29000
C829        C  0.75527996  0.64842859  0.20592663    -0.05100
C830        C  0.75778973  0.64790812  0.15984194     0.07100
C831        C  0.75148212  0.67239522  0.14327646     0.00900
H832        H  0.75906799  0.63319865  0.23074456     0.08500
H833        H  0.75200813  0.68021481  0.10871698     0.07600
N834        N  0.73587641  0.70775396  0.33452891    -0.36200
N835        N  0.72981924  0.73272536  0.33465595    -0.28400
C836        C  0.72775557  0.73993415  0.37740631    -0.03700
C837        C  0.73276085  0.71845519  0.40536559     0.04900
C838        C  0.73783585  0.69850130  0.37702674     0.03000
H839        H  0.72288998  0.75933506  0.38711475     0.08100
H840        H  0.74253395  0.67857706  0.38657938     0.07000
N841        N  0.75129362  0.94700643  0.21299602    -0.27400
N842        N  0.76572773  0.96356557  0.17605132    -0.35300
C843        C  0.75487400  0.94271837  0.14143729     0.00900
C844        C  0.73250306  0.91139819  0.15733323     0.07000
C845        C  0.73092155  0.91510357  0.20296324    -0.06100
H846        H  0.76259032  0.95003603  0.10719421     0.07600
H847        H  0.71567502  0.89626970  0.22708273     0.08800
Cu848      Cu  0.70381599  0.43798157  0.17429666     0.44200
Cu849      Cu  0.75978581  0.96944094  0.27462889     0.42000
Cu850      Cu  0.70895147  0.48033509  0.27697069     0.43900
N851        N  0.72357653  0.48868886  0.17831763    -0.34800
N852        N  0.72596784  0.50469096  0.21540964    -0.29000
C853        C  0.74089739  0.53739150  0.20575835    -0.05100
C854        C  0.74800607  0.54200319  0.16037057     0.07100
C855        C  0.73661277  0.51051240  0.14427944     0.00900
H856        H  0.74602199  0.55630236  0.22994286     0.08500
H857        H  0.73803074  0.50377690  0.11034231     0.07600
N858        N  0.69207057  0.44852489  0.33278915    -0.36200
N859        N  0.77290672  0.99699960  0.33248127    -0.28400
C860        C  0.76291408  0.98516540  0.37411319    -0.03700
C861        C  0.68100794  0.42873655  0.40255970     0.04900
C862        C  0.69309091  0.45710024  0.37582972     0.03000
H863        H  0.74639810  0.95944158  0.38238191     0.08100
H864        H  0.70267700  0.48222878  0.38672031     0.07000
C865        C  0.68825650  0.45099403  0.47920048    -0.16500
C866        C  0.67869764  0.42518076  0.45200746    -0.31700
H867        H  0.80575180  0.05839641  0.46613999     0.12500
H868        H  0.66928368  0.40050211  0.46624622     0.13000
C869        C  0.72611424  0.73544893  0.48040742    -0.16500
C870        C  0.73248760  0.71605541  0.45478107    -0.31700
H871        H  0.72112540  0.75394385  0.46495260     0.12500
H872        H  0.73725041  0.69740428  0.47021952     0.13000
C873        C  0.71385686  0.84896882  0.94093487    -0.13500
C874        C  0.68935851  0.85305542  0.91766371     0.08700
C875        C  0.66813824  0.85951220  0.94286613    -0.13500
C876        C  0.66897540  0.85821185  0.98963587    -0.13500
C877        C  0.69072377  0.84996265  0.01282026     0.08700
C878        C  0.71441614  0.84724709  0.98779667    -0.13500
H879        H  0.73251004  0.84675279  0.92292049     0.12700
H880        H  0.65107598  0.86608458  0.92676341     0.12700
H881        H  0.65254315  0.86388893  0.00753050     0.12700
H882        H  0.73355617  0.84392600  0.00428854     0.12700
C883        C  0.96242235  0.71074324  0.45118432    -0.16500
C884        C  0.93626381  0.69603552  0.47814583    -0.31700
H885        H  0.55939660  0.80319892  0.46700523     0.12500
H886        H  0.91184445  0.68030452  0.46403800     0.13000
C887        C  0.75200227  0.60841063  0.94522810    -0.13500
C888        C  0.77769566  0.60933565  0.92035649     0.08700
C889        C  0.80212557  0.60527014  0.94376390    -0.13500
C890        C  0.80309463  0.60446518  0.99058666    -0.13500
C891        C  0.77958340  0.60756479  0.01552529     0.08700
C892        C  0.75289500  0.60746259  0.99207461    -0.13500
H893        H  0.73100993  0.60826765  0.92864359     0.12700
H894        H  0.82061019  0.60262745  0.92599904     0.12700
H895        H  0.82230997  0.60128808  0.00710599     0.12700
H896        H  0.73255964  0.60665922  0.00980639     0.12700
loop_ 
_geom_bond_atom_site_label_1 
_geom_bond_atom_site_label_2 
_geom_bond_distance 
_geom_bond_site_symmetry_2 
_ccdc_geom_bond_type 
C1            C2   1.539       .  S
C1            C7   1.530       .  S
C1            C5   1.541       .  S
C1          C216   1.528       .  S
C2            H9   1.083       .  S
C2            C3   1.366       .  D
C3            C4   1.540       .  S
C3           C16   1.484       .  S
C4            C8   1.543       .  S
C4            C6   1.541       .  S
C4           H10   1.106       .  S
C5           H11   1.084       .  S
C5            C6   1.368       .  D
C6           C52   1.484       .  S
C7           H12   1.085       .  S
C7            C8   1.366       .  D
C8           C86   1.484       .  S
N13          N14   1.320       .  A
N13          C17   1.347       .  A
N13         Cu21   2.073       .  S
N14          C15   1.342       .  A
N14         Cu20   2.072       .  S
C15          C16   1.386       .  A
C15          H18   1.081       .  S
C16          C17   1.387       .  A
C17          H19   1.081       .  S
Cu20        N471   2.072       .  S
Cu21         N31   2.075       .  S
Cu22         N24   2.080       .  S
Cu22         N30   2.081       .  S
N23          N24   1.322       .  A
N23          C27   1.341       .  A
N23        Cu468   2.068       .  S
N24          C25   1.347       .  A
C25          C26   1.387       .  A
C25          H28   1.081       .  S
C26          C39   1.482       .  S
C26          C27   1.384       .  A
C27          H29   1.081       .  S
N30         N479   1.323       .  A
N30          C34   1.346       .  A
N31         N478   1.324       .  A
N31          C32   1.344       .  A
C32          C33   1.380       .  A
C32          H35   1.082       .  S
C33         C212   1.478       .  S
C33         C482   1.387       .  A
C34         C481   1.388       .  A
C34          H36   1.081       .  S
C37          C38   1.541       .  S
C37          C43   1.529       .  S
C37          C41   1.537       .  S
C37         C202   1.527       .  S
C38          H45   1.083       .  S
C38          C39   1.367       .  D
C39          C40   1.538       .  S
C40          C44   1.543       .  S
C40          C42   1.542       .  S
C40          H46   1.106       .  S
C41          H47   1.084       .  S
C41          C42   1.366       .  D
C42          C62   1.481       .  S
C43          H48   1.085       .  S
C43          C44   1.368       .  D
C44          C76   1.485       .  S
N49          N50   1.321       .  A
N49          C53   1.347       .  A
N49         Cu57   2.079       .  S
N50          C51   1.343       .  A
N50         Cu56   2.070       .  S
C51          C52   1.386       .  A
C51          H54   1.081       .  S
C52          C53   1.388       .  A
C53          H55   1.081       .  S
Cu56         N59   2.070       .  S
Cu57         N67   2.080       .  S
Cu58         N60   2.067       .  S
Cu58         N66   2.068       .  S
N59          N60   1.320       .  A
N59          C63   1.342       .  A
N60          C61   1.345       .  A
C61          C62   1.385       .  A
C61          H64   1.081       .  S
C62          C63   1.386       .  A
C63          H65   1.081       .  S
N66          N67   1.323       .  A
N66          C70   1.344       .  A
N67          C68   1.345       .  A
C68          C69   1.387       .  A
C68          H71   1.081       .  S
C69         C197   1.476       .  S
C69          C70   1.380       .  A
C70          H72   1.082       .  S
N73          N74   1.322       .  A
N73          C77   1.349       .  A
N73         Cu81   2.087       .  S
N74          C75   1.342       .  A
N74        Cu304   2.069       .  S
C75          C76   1.384       .  A
C75          H78   1.081       .  S
C76          C77   1.389       .  A
C77          H79   1.081       .  S
Cu80         N83   2.070   1_565  S
Cu80        N298   2.071       .  S
Cu81         N91   2.087       .  S
Cu82         N84   2.074       .  S
Cu82         N90   2.075       .  S
N83          N84   1.320       .  A
N83          C87   1.343       .  A
N84          C85   1.347       .  A
C85          C86   1.387       .  A
C85          H88   1.081       .  S
C86          C87   1.386       .  A
C87          H89   1.081       .  S
N90         N315   1.324   1_545  A
N90          C94   1.344       .  A
N91         N314   1.324       .  A
N91          C92   1.346       .  A
C92         C317   1.388       .  A
C92          H95   1.081       .  S
C93         C193   1.479       .  S
C93          C94   1.380       .  A
C93         C316   1.388   1_545  A
C94          H96   1.082       .  S
C97          C98   1.529       .  S
C97         C103   1.539       .  S
C97         C101   1.536       .  S
C97         C219   1.529       .  S
C98         H105   1.085       .  S
C98          C99   1.368       .  D
C99         C100   1.544       .  S
C99         C182   1.486       .  S
C100        C104   1.545       .  S
C100        C102   1.543       .  S
C100        H106   1.107       .  S
C101        H107   1.083       .  S
C101        C102   1.366       .  D
C102        C158   1.483       .  S
C103        H108   1.083       .  S
C103        C104   1.368       .  D
C104        C112   1.488       .  S
N109        N110   1.322       .  A
N109        C113   1.349       .  A
N109       Cu117   2.083       .  S
N110        C111   1.344       .  A
N110       Cu116   2.079       .  S
C111        C112   1.388       .  A
C111        H114   1.081       .  S
C112        C113   1.388       .  A
C113        H115   1.081       .  S
Cu116       N567   2.079       .  S
Cu117       N127   2.084       .  S
Cu118       N120   2.062       .  S
Cu118       N126   2.063       .  S
N119        N120   1.320       .  A
N119        C123   1.343       .  A
N119       Cu564   2.073       .  S
N120        C121   1.345       .  A
C121        C122   1.384       .  A
C121        H124   1.081       .  S
C122        C140   1.481       .  S
C122        C123   1.387       .  A
C123        H125   1.081       .  S
N126        N575   1.323       .  A
N126        C130   1.343       .  A
N127        N574   1.323       .  A
N127        C128   1.346       .  A
C128        C129   1.388       .  A
C128        H131   1.081       .  S
C129        C211   1.479       .  S
C129        C578   1.381       .  A
C130        C577   1.378       .  A
C130        H132   1.082       .  S
C133        C134   1.528       .  S
C133        C139   1.540       .  S
C133        C137   1.540       .  S
C133        C205   1.526       .  S
C134        H141   1.085       .  S
C134        C135   1.366       .  D
C135        C136   1.544       .  S
C135        C172   1.485       .  S
C136        C140   1.540       .  S
C136        C138   1.543       .  S
C136        H142   1.106       .  S
C137        H143   1.084       .  S
C137        C138   1.369       .  D
C138        C148   1.487       .  S
C139        H144   1.083       .  S
C139        C140   1.365       .  D
N145        N146   1.321       .  A
N145        C149   1.348       .  A
N145       Cu153   2.083       .  S
N146        C147   1.344       .  A
N146       Cu152   2.076       .  S
C147        C148   1.387       .  A
C147        H150   1.081       .  S
C148        C149   1.388       .  A
C149        H151   1.081       .  S
Cu152       N155   2.076       .  S
Cu153       N163   2.083       .  S
Cu154       N156   2.068       .  S
Cu154       N162   2.069       .  S
N155        N156   1.321       .  A
N155        C159   1.342       .  A
N156        C157   1.347       .  A
C157        C158   1.386       .  A
C157        H160   1.081       .  S
C158        C159   1.387       .  A
C159        H161   1.081       .  S
N162        N163   1.324       .  A
N162        C166   1.343       .  A
N163        C164   1.346       .  A
C164        C165   1.387       .  A
C164        H167   1.081       .  S
C165        C198   1.476       .  S
C165        C166   1.380       .  A
C166        H168   1.082       .  S
N169        N170   1.320       .  A
N169        C173   1.348       .  A
N169       Cu177   2.074       .  S
N170        C171   1.342       .  A
N170       Cu400   2.072       .  S
C171        C172   1.387       .  A
C171        H174   1.081       .  S
C172        C173   1.387       .  A
C173        H175   1.081       .  S
Cu176       N179   2.068   1_565  S
Cu176       N394   2.067       .  S
Cu177       N187   2.074       .  S
Cu178       N180   2.088       .  S
Cu178       N186   2.089   1_545  S
N179        N180   1.321       .  A
N179        C183   1.341       .  A
N180        C181   1.351       .  A
C181        C182   1.390       .  A
C181        H184   1.082       .  S
C182        C183   1.384       .  A
C183        H185   1.081       .  S
N186        N411   1.325       .  A
N186        C190   1.347   1_565  A
N187        N410   1.324       .  A
N187        C188   1.343       .  A
C188        C413   1.380       .  A
C188        H191   1.082       .  S
C189        C194   1.479       .  S
C189        C190   1.388   1_565  A
C189        C412   1.380       .  A
C190        H192   1.081       .  S
C193        H419   1.085       .  S
C193        C194   1.343   1_545  D
C194        H196   1.085       .  S
H195        C417   1.085       .  S
C197        H199   1.085       .  S
C197        C198   1.342       .  D
C198        H200   1.085       .  S
C201        C202   1.409       .  A
C201        C206   1.399       .  A
C201        H207   1.082       .  S
C202        C203   1.407       .  A
C203        C204   1.395       .  A
C203        H208   1.081       .  S
C204        C205   1.408   1_556  A
C204        H209   1.081   1_556  S
C205        C206   1.407   1_554  A
C206        H210   1.082   1_556  S
C211        H661   1.085       .  S
C211        C212   1.343       .  D
C212        H214   1.085       .  S
H213        C659   1.085       .  S
C215        C216   1.407       .  A
C215        C220   1.398       .  A
C215        H221   1.082       .  S
C216        C217   1.409       .  A
C217        C218   1.398       .  A
C217        H222   1.081       .  S
C218        C219   1.407   1_556  A
C218        H223   1.082   1_556  S
C219        C220   1.409   1_554  A
C220        H224   1.081   1_556  S
C225        C226   1.537       .  S
C225        C231   1.533       .  S
C225        C229   1.541       .  S
C225        C440   1.528       .  S
C226        H233   1.084       .  S
C226        C227   1.366       .  D
C227        C228   1.545       .  S
C227        C240   1.486       .  S
C228        C232   1.541       .  S
C228        C230   1.544       .  S
C228        H234   1.106       .  S
C229        H235   1.083       .  S
C229        C230   1.367       .  D
C230        C276   1.489       .  S
C231        H236   1.085       .  S
C231        C232   1.367       .  D
C232        C310   1.482       .  S
N237        N238   1.320       .  A
N237        C241   1.348       .  A
N237       Cu245   2.073       .  S
N238        C239   1.343       .  A
N238       Cu244   2.078       .  S
C239        C240   1.389       .  A
C239        H242   1.081       .  S
C240        C241   1.387       .  A
C241        H243   1.081       .  S
Cu244       N695   2.077       .  S
Cu245       N255   2.073       .  S
Cu246       N248   2.082   1_655  S
Cu246       N254   2.084       .  S
N247        N248   1.322   1_655  A
N247        C251   1.342   1_655  A
N247       Cu692   2.078       .  S
N248        C249   1.350       .  A
C249        C250   1.388       .  A
C249        H252   1.081       .  S
C250        C263   1.487       .  S
C250        C251   1.387       .  A
C251        H253   1.081       .  S
N254        N703   1.324       .  A
N254        C258   1.346       .  A
N255        N702   1.323       .  A
N255        C256   1.343       .  A
C256        C257   1.380       .  A
C256        H259   1.082       .  S
C257        C436   1.476       .  S
C257        C706   1.387       .  A
C258        C705   1.388       .  A
C258        H260   1.081       .  S
C261        C262   1.538       .  S
C261        C267   1.530       .  S
C261        C265   1.535       .  S
C261        C426   1.528       .  S
C262        H269   1.081       .  S
C262        C263   1.366       .  D
C263        C264   1.544       .  S
C264        C268   1.545       .  S
C264        C266   1.546       .  S
C264        H270   1.107       .  S
C265        H271   1.085       .  S
C265        C266   1.366       .  D
C266        C286   1.483       .  S
C267        H272   1.085       .  S
C267        C268   1.368       .  D
C268        C300   1.486       .  S
N273        N274   1.322       .  A
N273        C277   1.350       .  A
N273       Cu281   2.086       .  S
N274        C275   1.344       .  A
N274       Cu280   2.082       .  S
C275        C276   1.388       .  A
C275        H278   1.081       .  S
C276        C277   1.388       .  A
C277        H279   1.081       .  S
Cu280       N283   2.082       .  S
Cu281       N291   2.086       .  S
Cu282       N284   2.066       .  S
Cu282       N290   2.068       .  S
N283        N284   1.321       .  A
N283        C287   1.343       .  A
N284        C285   1.347       .  A
C285        C286   1.384       .  A
C285        H288   1.081       .  S
C286        C287   1.389       .  A
C287        H289   1.081       .  S
N290        N291   1.323       .  A
N290        C294   1.344       .  A
N291        C292   1.346       .  A
C292        C293   1.388       .  A
C292        H295   1.081       .  S
C293        C421   1.478       .  S
C293        C294   1.380       .  A
C294        H296   1.082       .  S
N297        N298   1.322       .  A
N297        C301   1.350       .  A
N297       Cu305   2.086       .  S
N298        C299   1.342       .  A
C299        C300   1.385       .  A
C299        H302   1.081       .  S
C300        C301   1.389       .  A
C301        H303   1.081       .  S
Cu304       N307   2.069       .  S
Cu305       N315   2.087       .  S
Cu306       N308   2.070       .  S
Cu306       N314   2.071       .  S
N307        N308   1.320       .  A
N307        C311   1.344       .  A
N308        C309   1.345       .  A
C309        C310   1.386       .  A
C309        H312   1.081       .  S
C310        C311   1.386       .  A
C311        H313   1.081       .  S
N314        C318   1.344       .  A
N315        C316   1.347       .  A
C316        H319   1.081       .  S
C317        C417   1.479       .  S
C317        C318   1.380       .  A
C318        H320   1.082       .  S
C321        C322   1.535       .  S
C321        C327   1.538       .  S
C321        C325   1.535       .  S
C321        C443   1.529       .  S
C322        H329   1.085       .  S
C322        C323   1.369       .  D
C323        C324   1.541       .  S
C323        C406   1.484       .  S
C324        C328   1.544       .  S
C324        C326   1.543       .  S
C324        H330   1.107       .  S
C325        H331   1.083       .  S
C325        C326   1.364       .  D
C326        C382   1.483       .  S
C327        H332   1.083       .  S
C327        C328   1.368       .  D
C328        C336   1.486       .  S
N333        N334   1.321       .  A
N333        C337   1.349       .  A
N333       Cu341   2.083       .  S
N334        C335   1.342       .  A
N334       Cu340   2.072       .  S
C335        C336   1.386       .  A
C335        H338   1.081       .  S
C336        C337   1.388       .  A
C337        H339   1.081       .  S
Cu340       N791   2.072       .  S
Cu341       N351   2.083       .  S
Cu342       N344   2.068       .  S
Cu342       N350   2.069   1_455  S
N343        N344   1.320       .  A
N343        C347   1.343       .  A
N343       Cu788   2.080   1_455  S
N344        C345   1.347       .  A
C345        C346   1.385       .  A
C345        H348   1.081       .  S
C346        C364   1.485       .  S
C346        C347   1.389       .  A
C347        H349   1.081       .  S
N350        N799   1.323       .  A
N350        C354   1.343       .  A
N351        N798   1.323       .  A
N351        C352   1.346       .  A
C352        C353   1.387       .  A
C352        H355   1.081       .  S
C353        C435   1.477       .  S
C353        C802   1.379       .  A
C354        C801   1.379       .  A
C354        H356   1.082   1_655  S
C357        C358   1.531       .  S
C357        C363   1.538       .  S
C357        C361   1.542       .  S
C357        C429   1.527       .  S
C358        H365   1.086       .  S
C358        C359   1.366       .  D
C359        C360   1.540       .  S
C359        C396   1.481       .  S
C360        C364   1.543       .  S
C360        C362   1.543       .  S
C360        H366   1.106       .  S
C361        H367   1.084       .  S
C361        C362   1.370       .  D
C362        C372   1.486       .  S
C363        H368   1.083       .  S
C363        C364   1.363       .  D
N369        N370   1.321       .  A
N369        C373   1.347       .  A
N369       Cu377   2.082       .  S
N370        C371   1.345       .  A
N370       Cu376   2.074       .  S
C371        C372   1.387       .  A
C371        H374   1.081       .  S
C372        C373   1.388       .  A
C373        H375   1.081       .  S
Cu376       N379   2.074       .  S
Cu377       N387   2.084       .  S
Cu378       N380   2.072       .  S
Cu378       N386   2.072       .  S
N379        N380   1.321       .  A
N379        C383   1.341       .  A
N380        C381   1.348       .  A
C381        C382   1.386       .  A
C381        H384   1.081       .  S
C382        C383   1.386       .  A
C383        H385   1.081       .  S
N386        N387   1.324       .  A
N386        C390   1.343       .  A
N387        C388   1.347       .  A
C388        C389   1.387       .  A
C388        H391   1.081       .  S
C389        C422   1.477       .  S
C389        C390   1.380       .  A
C390        H392   1.082       .  S
N393        N394   1.320       .  A
N393        C397   1.348       .  A
N393       Cu401   2.075       .  S
N394        C395   1.343       .  A
C395        C396   1.385       .  A
C395        H398   1.082       .  S
C396        C397   1.387       .  A
C397        H399   1.082       .  S
Cu400       N403   2.072       .  S
Cu401       N411   2.076       .  S
Cu402       N404   2.085       .  S
Cu402       N410   2.086       .  S
N403        N404   1.322       .  A
N403        C407   1.343       .  A
N404        C405   1.348       .  A
C405        C406   1.388       .  A
C405        H408   1.081       .  S
C406        C407   1.385       .  A
C407        H409   1.081       .  S
N410        C414   1.348       .  A
N411        C412   1.344       .  A
C412        H415   1.082       .  S
C413        C418   1.478       .  S
C413        C414   1.388       .  A
C414        H416   1.081       .  S
C417        C418   1.342       .  D
C418        H420   1.085       .  S
C421        H423   1.085       .  S
C421        C422   1.342       .  D
C422        H424   1.085       .  S
C425        C426   1.409       .  A
C425        C430   1.400       .  A
C425        H431   1.083       .  S
C426        C427   1.407       .  A
C427        C428   1.395       .  A
C427        H432   1.080       .  S
C428        C429   1.408   1_556  A
C428        H433   1.081   1_556  S
C429        C430   1.407   1_554  A
C430        H434   1.082   1_556  S
C435        H885   1.085       .  S
C435        C436   1.342       .  D
C436        H438   1.085       .  S
H437        C883   1.085       .  S
C439        C440   1.407       .  A
C439        C444   1.397       .  A
C439        H445   1.081       .  S
C440        C441   1.409       .  A
C441        C442   1.399       .  A
C441        H446   1.082       .  S
C442        C443   1.408   1_556  A
C442        H447   1.081   1_556  S
C443        C444   1.409   1_554  A
C444        H448   1.081   1_556  S
C449        C450   1.536       .  S
C449        C455   1.533       .  S
C449        C453   1.542       .  S
C449        C664   1.525       .  S
C450        H457   1.084       .  S
C450        C451   1.365       .  D
C451        C452   1.543       .  S
C451        C464   1.483       .  S
C452        C456   1.540       .  S
C452        C454   1.539       .  S
C452        H458   1.105       .  S
C453        H459   1.083       .  S
C453        C454   1.367       .  D
C454        C500   1.485       .  S
C455        H460   1.085       .  S
C455        C456   1.366       .  D
C456        C534   1.482       .  S
N461        N462   1.319   1_655  A
N461        C465   1.346       .  A
N461       Cu469   2.068   1_655  S
N462        C463   1.342   1_455  A
N462       Cu468   2.068       .  S
C463        C464   1.387       .  A
C463        H466   1.081       .  S
C464        C465   1.386       .  A
C465        H467   1.081       .  S
Cu469       N479   2.069       .  S
Cu470       N472   2.084       .  S
Cu470       N478   2.086       .  S
N471        N472   1.321       .  A
N471        C475   1.342       .  A
N472        C473   1.349       .  A
C473        C474   1.389       .  A
C473        H476   1.081       .  S
C474        C487   1.486       .  S
C474        C475   1.386       .  A
C475        H477   1.081       .  S
N478        C482   1.347       .  A
N479        C480   1.343       .  A
C480        C481   1.379       .  A
C480        H483   1.082   1_455  S
C481        C660   1.476       .  S
C482        H484   1.081       .  S
C485        C486   1.541       .  S
C485        C491   1.532       .  S
C485        C489   1.532       .  S
C485        C650   1.528       .  S
C486        H493   1.083       .  S
C486        C487   1.368       .  D
C487        C488   1.542       .  S
C488        C492   1.543       .  S
C488        C490   1.546       .  S
C488        H494   1.107       .  S
C489        H495   1.084       .  S
C489        C490   1.364       .  D
C490        C510   1.481       .  S
C491        H496   1.085       .  S
C491        C492   1.369       .  D
C492        C524   1.487       .  S
N497        N498   1.321       .  A
N497        C501   1.347       .  A
N497       Cu505   2.080       .  S
N498        C499   1.343       .  A
N498       Cu504   2.074       .  S
C499        C500   1.386       .  A
C499        H502   1.081       .  S
C500        C501   1.388       .  A
C501        H503   1.081       .  S
Cu504       N507   2.075       .  S
Cu505       N515   2.081       .  S
Cu506       N508   2.065       .  S
Cu506       N514   2.066       .  S
N507        N508   1.321       .  A
N507        C511   1.342       .  A
N508        C509   1.347       .  A
C509        C510   1.384       .  A
C509        H512   1.081       .  S
C510        C511   1.387       .  A
C511        H513   1.081       .  S
N514        N515   1.323       .  A
N514        C518   1.343       .  A
N515        C516   1.346       .  A
C516        C517   1.387       .  A
C516        H519   1.081       .  S
C517        C645   1.476       .  S
C517        C518   1.379       .  A
C518        H520   1.082       .  S
N521        N522   1.322       .  A
N521        C525   1.349       .  A
N521       Cu529   2.089       .  S
N522        C523   1.343       .  A
N522       Cu752   2.073       .  S
C523        C524   1.385       .  A
C523        H526   1.081       .  S
C524        C525   1.389       .  A
C525        H527   1.081       .  S
Cu528       N746   2.072   1_545  S
Cu528       N531   2.071       .  S
Cu529       N539   2.091       .  S
Cu530       N532   2.066       .  S
Cu530       N538   2.067       .  S
N531        N532   1.320       .  A
N531        C535   1.344       .  A
N532        C533   1.344       .  A
C533        C534   1.385       .  A
C533        H536   1.081       .  S
C534        C535   1.387       .  A
C535        H537   1.081       .  S
N538        N763   1.323       .  A
N538        C542   1.343       .  A
N539        N762   1.324       .  A
N539        C540   1.348       .  A
C540        C765   1.389       .  A
C540        H543   1.081       .  S
C541        C641   1.478       .  S
C541        C764   1.388       .  A
C541        C542   1.379       .  A
C542        H544   1.082       .  S
C545        C546   1.531       .  S
C545        C551   1.536       .  S
C545        C549   1.537       .  S
C545        C667   1.526       .  S
C546        H553   1.085       .  S
C546        C547   1.368       .  D
C547        C548   1.544       .  S
C547        C630   1.485       .  S
C548        C552   1.545       .  S
C548        C550   1.541       .  S
C548        H554   1.106       .  S
C549        H555   1.083       .  S
C549        C550   1.364       .  D
C550        C606   1.480       .  S
C551        H556   1.083       .  S
C551        C552   1.368       .  D
C552        C560   1.488       .  S
N557        N558   1.322   1_655  A
N557        C561   1.350       .  A
N557       Cu565   2.088   1_655  S
N558        C559   1.342   1_455  A
N558       Cu564   2.074       .  S
C559        C560   1.386       .  A
C559        H562   1.081       .  S
C560        C561   1.389       .  A
C561        H563   1.081       .  S
Cu565       N575   2.089       .  S
Cu566       N568   2.069       .  S
Cu566       N574   2.071       .  S
N567        N568   1.321       .  A
N567        C571   1.343       .  A
N568        C569   1.347       .  A
C569        C570   1.384       .  A
C569        H572   1.081       .  S
C570        C588   1.482       .  S
C570        C571   1.388       .  A
C571        H573   1.081       .  S
N574        C578   1.344       .  A
N575        C576   1.347       .  A
C576        C577   1.388       .  A
C576        H579   1.081       .  S
C577        C659   1.477       .  S
C578        H580   1.082       .  S
C581        C582   1.533       .  S
C581        C587   1.537       .  S
C581        C585   1.539       .  S
C581        C653   1.528       .  S
C582        H589   1.085       .  S
C582        C583   1.367       .  D
C583        C584   1.542       .  S
C583        C620   1.484       .  S
C584        C588   1.542       .  S
C584        C586   1.544       .  S
C584        H590   1.107       .  S
C585        H591   1.084       .  S
C585        C586   1.369       .  D
C586        C596   1.487       .  S
C587        H592   1.084       .  S
C587        C588   1.363       .  D
N593        N594   1.321       .  A
N593        C597   1.349       .  A
N593       Cu601   2.086       .  S
N594        C595   1.343       .  A
N594       Cu600   2.072       .  S
C595        C596   1.386       .  A
C595        H598   1.081       .  S
C596        C597   1.389       .  A
C597        H599   1.081       .  S
Cu600       N603   2.072       .  S
Cu601       N611   2.087       .  S
Cu602       N604   2.063       .  S
Cu602       N610   2.064       .  S
N603        N604   1.320       .  A
N603        C607   1.341       .  A
N604        C605   1.346       .  A
C605        C606   1.384       .  A
C605        H608   1.081       .  S
C606        C607   1.387       .  A
C607        H609   1.081       .  S
N610        N611   1.323       .  A
N610        C614   1.343       .  A
N611        C612   1.346       .  A
C612        C613   1.388       .  A
C612        H615   1.081       .  S
C613        C646   1.476       .  S
C613        C614   1.379       .  A
C614        H616   1.082       .  S
N617        N618   1.320       .  A
N617        C621   1.348       .  A
N617       Cu625   2.078       .  S
N618        C619   1.344       .  A
N618       Cu848   2.071       .  S
C619        C620   1.386       .  A
C619        H622   1.081       .  S
C620        C621   1.388       .  A
C621        H623   1.081       .  S
Cu624       N842   2.077   1_545  S
Cu624       N627   2.077       .  S
Cu625       N635   2.079       .  S
Cu626       N628   2.080       .  S
Cu626       N634   2.081       .  S
N627        N628   1.322       .  A
N627        C631   1.343       .  A
N628        C629   1.347       .  A
C629        C630   1.387       .  A
C629        H632   1.081       .  S
C630        C631   1.387       .  A
C631        H633   1.081       .  S
N634        N859   1.323   1_545  A
N634        C638   1.347       .  A
N635        N858   1.325       .  A
N635        C636   1.345       .  A
C636        C861   1.381       .  A
C636        H639   1.082       .  S
C637        C642   1.477       .  S
C637        C860   1.380   1_545  A
C637        C638   1.388       .  A
C638        H640   1.081       .  S
C641        H867   1.085       .  S
C641        C642   1.342       .  D
C642        H644   1.085   1_545  S
H643        C865   1.085       .  S
C645        H647   1.085       .  S
C645        C646   1.341       .  D
C646        H648   1.085       .  S
C649        C650   1.410       .  A
C649        C654   1.399       .  A
C649        H655   1.082       .  S
C650        C651   1.406       .  A
C651        C652   1.396       .  A
C651        H656   1.081       .  S
C652        C653   1.409   1_556  A
C652        H657   1.081   1_556  S
C653        C654   1.407   1_554  A
C654        H658   1.082   1_556  S
C659        C660   1.341       .  D
C660        H662   1.085       .  S
C663        C664   1.407       .  A
C663        C668   1.395       .  A
C663        H669   1.081       .  S
C664        C665   1.408       .  A
C665        C666   1.398       .  A
C665        H670   1.082       .  S
C666        C667   1.407   1_556  A
C666        H671   1.082   1_556  S
C667        C668   1.408   1_554  A
C668        H672   1.081   1_556  S
C673        C674   1.540       .  S
C673        C679   1.528       .  S
C673        C677   1.540       .  S
C673        C888   1.526       .  S
C674        H681   1.084       .  S
C674        C675   1.366       .  D
C675        C676   1.542       .  S
C675        C688   1.484       .  S
C676        C680   1.544       .  S
C676        C678   1.541       .  S
C676        H682   1.106       .  S
C677        H683   1.084       .  S
C677        C678   1.368       .  D
C678        C724   1.484       .  S
C679        H684   1.085       .  S
C679        C680   1.366       .  D
C680        C758   1.485       .  S
N685        N686   1.320       .  A
N685        C689   1.347       .  A
N685       Cu693   2.069       .  S
N686        C687   1.344       .  A
N686       Cu692   2.078       .  S
C687        C688   1.388       .  A
C687        H690   1.081       .  S
C688        C689   1.386       .  A
C689        H691   1.081       .  S
Cu693       N703   2.071       .  S
Cu694       N696   2.079       .  S
Cu694       N702   2.080       .  S
N695        N696   1.322       .  A
N695        C699   1.343       .  A
N696        C697   1.348       .  A
C697        C698   1.387       .  A
C697        H700   1.081       .  S
C698        C711   1.485       .  S
C698        C699   1.386       .  A
C699        H701   1.081       .  S
N702        C706   1.346       .  A
N703        C704   1.344       .  A
C704        C705   1.380       .  A
C704        H707   1.082       .  S
C705        C884   1.477       .  S
C706        H708   1.081       .  S
C709        C710   1.541       .  S
C709        C715   1.530       .  S
C709        C713   1.535       .  S
C709        C874   1.527       .  S
C710        H717   1.083       .  S
C710        C711   1.367       .  D
C711        C712   1.541       .  S
C712        C716   1.544       .  S
C712        C714   1.543       .  S
C712        H718   1.106       .  S
C713        H719   1.084       .  S
C713        C714   1.365       .  D
C714        C734   1.482       .  S
C715        H720   1.085       .  S
C715        C716   1.368       .  D
C716        C748   1.486       .  S
N721        N722   1.321       .  A
N721        C725   1.347       .  A
N721       Cu729   2.077       .  S
N722        C723   1.343       .  A
N722       Cu728   2.072       .  S
C723        C724   1.386       .  A
C723        H726   1.081       .  S
C724        C725   1.387       .  A
C725        H727   1.081       .  S
Cu728       N731   2.072       .  S
Cu729       N739   2.078       .  S
Cu730       N732   2.067       .  S
Cu730       N738   2.068       .  S
N731        N732   1.320       .  A
N731        C735   1.342       .  A
N732        C733   1.346       .  A
C733        C734   1.385       .  A
C733        H736   1.081       .  S
C734        C735   1.387       .  A
C735        H737   1.081       .  S
N738        N739   1.323       .  A
N738        C742   1.343       .  A
N739        C740   1.345       .  A
C740        C741   1.386       .  A
C740        H743   1.081       .  S
C741        C869   1.476       .  S
C741        C742   1.380       .  A
C742        H744   1.082       .  S
N745        N746   1.322       .  A
N745        C749   1.349       .  A
N745       Cu753   2.087       .  S
N746        C747   1.342       .  A
C747        C748   1.385       .  A
C747        H750   1.081       .  S
C748        C749   1.389       .  A
C749        H751   1.081       .  S
Cu752       N755   2.073       .  S
Cu753       N763   2.087   1_565  S
Cu754       N756   2.075       .  S
Cu754       N762   2.076       .  S
N755        N756   1.320       .  A
N755        C759   1.343       .  A
N756        C757   1.348       .  A
C757        C758   1.387       .  A
C757        H760   1.081       .  S
C758        C759   1.387       .  A
C759        H761   1.081       .  S
N762        C766   1.344       .  A
N763        C764   1.346       .  A
C764        H767   1.081   1_545  S
C765        C865   1.481       .  S
C765        C766   1.381       .  A
C766        H768   1.082       .  S
C769        C770   1.528       .  S
C769        C775   1.540       .  S
C769        C773   1.537       .  S
C769        C891   1.527       .  S
C770        H777   1.085       .  S
C770        C771   1.367       .  D
C771        C772   1.544       .  S
C771        C854   1.485       .  S
C772        C776   1.544       .  S
C772        C774   1.541       .  S
C772        H778   1.107       .  S
C773        H779   1.084       .  S
C773        C774   1.366       .  D
C774        C830   1.480       .  S
C775        H780   1.083       .  S
C775        C776   1.368       .  D
C776        C784   1.487       .  S
N781        N782   1.322       .  A
N781        C785   1.348       .  A
N781       Cu789   2.083       .  S
N782        C783   1.343       .  A
N782       Cu788   2.080       .  S
C783        C784   1.387       .  A
C783        H786   1.081       .  S
C784        C785   1.387       .  A
C785        H787   1.081       .  S
Cu789       N799   2.084       .  S
Cu790       N792   2.064       .  S
Cu790       N798   2.066       .  S
N791        N792   1.320       .  A
N791        C795   1.343       .  A
N792        C793   1.345       .  A
C793        C794   1.384       .  A
C793        H796   1.081       .  S
C794        C812   1.481       .  S
C794        C795   1.387       .  A
C795        H797   1.081       .  S
N798        C802   1.344       .  A
N799        C800   1.347       .  A
C800        C801   1.388       .  A
C800        H803   1.081       .  S
C801        C883   1.477       .  S
C802        H804   1.082       .  S
C805        C806   1.530       .  S
C805        C811   1.539       .  S
C805        C809   1.542       .  S
C805        C877   1.526       .  S
C806        H813   1.085       .  S
C806        C807   1.365       .  D
C807        C808   1.543       .  S
C807        C844   1.483       .  S
C808        C812   1.540       .  S
C808        C810   1.542       .  S
C808        H814   1.106       .  S
C809        H815   1.084       .  S
C809        C810   1.370       .  D
C810        C820   1.487       .  S
C811        H816   1.084       .  S
C811        C812   1.364       .  D
N817        N818   1.321       .  A
N817        C821   1.348       .  A
N817       Cu825   2.085       .  S
N818        C819   1.344       .  A
N818       Cu824   2.071       .  S
C819        C820   1.386       .  A
C819        H822   1.081       .  S
C820        C821   1.389       .  A
C821        H823   1.081       .  S
Cu824       N827   2.071       .  S
Cu825       N835   2.085       .  S
Cu826       N828   2.067       .  S
Cu826       N834   2.069       .  S
N827        N828   1.320       .  A
N827        C831   1.341       .  A
N828        C829   1.347       .  A
C829        C830   1.385       .  A
C829        H832   1.081       .  S
C830        C831   1.386       .  A
C831        H833   1.081       .  S
N834        N835   1.324       .  A
N834        C838   1.343       .  A
N835        C836   1.346       .  A
C836        C837   1.387       .  A
C836        H839   1.081       .  S
C837        C870   1.476       .  S
C837        C838   1.379       .  A
C838        H840   1.082       .  S
N841        N842   1.320       .  A
N841        C845   1.346       .  A
N841       Cu849   2.070       .  S
N842        C843   1.344       .  A
C843        C844   1.387       .  A
C843        H846   1.081       .  S
C844        C845   1.386       .  A
C845        H847   1.081       .  S
Cu848       N851   2.072       .  S
Cu849       N859   2.071       .  S
Cu850       N852   2.089       .  S
Cu850       N858   2.091       .  S
N851        N852   1.322       .  A
N851        C855   1.342       .  A
N852        C853   1.351       .  A
C853        C854   1.389       .  A
C853        H856   1.082       .  S
C854        C855   1.384       .  A
C855        H857   1.081       .  S
N858        C862   1.348       .  A
N859        C860   1.343       .  A
C860        H863   1.082       .  S
C861        C866   1.481       .  S
C861        C862   1.389       .  A
C862        H864   1.081       .  S
C865        C866   1.343       .  D
C866        H868   1.085       .  S
C869        H871   1.085       .  S
C869        C870   1.342       .  D
C870        H872   1.085       .  S
C873        C874   1.409       .  A
C873        C878   1.399       .  A
C873        H879   1.082       .  S
C874        C875   1.406       .  A
C875        C876   1.396       .  A
C875        H880   1.081       .  S
C876        C877   1.409   1_556  A
C876        H881   1.082   1_556  S
C877        C878   1.407   1_554  A
C878        H882   1.082   1_556  S
C883        C884   1.342       .  D
C884        H886   1.085       .  S
C887        C888   1.407       .  A
C887        C892   1.398       .  A
C887        H893   1.082       .  S
C888        C889   1.408       .  A
C889        C890   1.397       .  A
C889        H894   1.082       .  S
C890        C891   1.407   1_556  A
C890        H895   1.081   1_556  S
C891        C892   1.409   1_554  A
C892        H896   1.082   1_556  S
