geometry optimzed in LAMMPS
_audit_creation_date              2020-12-01 
_audit_creation_method            'lammps2cif' 
_symmetry_space_group_name_H-M    'P1' 
_symmetry_Int_Tables_number       1 
_symmetry_cell_setting            triclinic 
loop_ 
_symmetry_equiv_pos_as_xyz 
  x,y,z 
_cell_length_a                    46.21751899 
_cell_length_b                    40.55451518268045 
_cell_length_c                    41.97173905725239 
_cell_angle_alpha                 90.04931116163043 
_cell_angle_beta                  90.02611432694931 
_cell_angle_gamma                 89.97698188120772 
loop_ 
_atom_site_label 
_atom_site_type_symbol 
_atom_site_fract_x 
_atom_site_fract_y 
_atom_site_fract_z 
_atom_site_charge 
C1          C  0.27420018  0.56566043  0.23466134     0.05000
C2          C  0.27514124  0.60018442  0.23427283    -0.11100
C3          C  0.25767312  0.61847244  0.25494323     0.02500
C4          C  0.23924226  0.60224185  0.27619866    -0.09700
C5          C  0.23809076  0.56770451  0.27672544     0.05000
C6          C  0.25563421  0.54930528  0.25592141    -0.09100
H7          H  0.28933911  0.61282437  0.21772220     0.10600
H8          H  0.22553463  0.61648376  0.29204668     0.08100
H9          H  0.25468664  0.52259809  0.25610650     0.08000
C10         C  0.23025983  0.94013811  0.23165657     0.05000
C11         C  0.23156355  0.90560386  0.23090277    -0.11100
C12         C  0.25207059  0.88876689  0.24925214     0.02500
C13         C  0.27136502  0.90644071  0.26842498    -0.09700
C14         C  0.27023102  0.94095271  0.26941984     0.05000
C15         C  0.24963041  0.95790785  0.25099140    -0.09100
H16         H  0.21664388  0.89184207  0.21601299     0.10600
H17         H  0.28725897  0.89332464  0.28261683     0.08100
H18         H  0.24873264  0.98460971  0.25162521     0.08000
O19         O  0.44790942  0.05842961  0.55203807    -0.79000
O20         O  0.54585647  0.96281529  0.50530591    -0.63700
O21         O  0.49999164  0.03871115  0.52175197    -1.10300
C22         C  0.44557531  0.99968125  0.43331960     1.07900
O23         O  0.54725526  0.97178158  0.45314574    -0.76900
O24         O  0.51800745  0.02378708  0.42863626    -0.64500
Ni25       Ni  0.48741008  0.04870290  0.56428472     1.34900
C26         C  0.50877866  0.05180911  0.43738637     0.86600
O27         O  0.55151128  0.01235134  0.54589587    -0.77500
O28         O  0.52578159  0.04181090  0.58129470    -0.87700
C29         C  0.55736483  0.95867366  0.47831359     0.86200
O30         O  0.47596394  0.00510710  0.57609711    -0.65900
O31         O  0.46888876  0.98578187  0.42418766    -0.85200
C32         C  0.48540803  0.97701164  0.56779609     0.87000
C33         C  0.54909767  0.02810202  0.57194583     1.08600
H34         H  0.48367783  0.97089004  0.49056820     0.40400
O35         O  0.49463772  0.98979444  0.48345636    -1.07900
O36         O  0.49094417  0.05594820  0.46005522    -0.64500
Ni37       Ni  0.47143857  0.02798518  0.49040177     1.26300
O38         O  0.50358357  0.97267529  0.54541515    -0.64800
O39         O  0.44318140  0.01601683  0.45907354    -0.77000
C40         C  0.43818560  0.07154233  0.52668924     0.86400
O41         O  0.44886941  0.06575374  0.49958474    -0.64200
Ni42       Ni  0.50747076  0.98003627  0.44095728     1.27400
Ni43       Ni  0.52314468  0.00046480  0.51477609     1.26100
H44         H  0.51099456  0.05755912  0.51457647     0.40900
C45         C  0.73029879  0.44862384  0.76600944     0.05000
C46         C  0.74793290  0.46714503  0.74545537    -0.11100
C47         C  0.76606250  0.45094049  0.72358760     0.02500
C48         C  0.76647738  0.41639376  0.72238348    -0.09700
C49         C  0.74894206  0.39800457  0.74290126     0.05000
C50         C  0.73088473  0.41412158  0.76463275    -0.09100
H51         H  0.74763341  0.49385017  0.74654840     0.10600
H52         H  0.78058649  0.40383841  0.70565731     0.08100
H53         H  0.71734692  0.39980233  0.78056379     0.08000
C54         C  0.76858517  0.07592656  0.77099111     0.05000
C55         C  0.74781221  0.05868893  0.75300051    -0.11100
C56         C  0.72796712  0.07622320  0.73406355     0.02500
C57         C  0.72894934  0.11072321  0.73325725    -0.09700
C58         C  0.74959199  0.12783779  0.75111192     0.05000
C59         C  0.76936473  0.11047118  0.76995466    -0.09100
H60         H  0.74715813  0.03198120  0.75365174     0.10600
H61         H  0.71368322  0.12427362  0.71861486     0.08100
H62         H  0.78538859  0.12382668  0.78375815     0.08000
C63         C  0.58573742  0.24635096  0.27794205     0.05000
C64         C  0.61605589  0.24551040  0.27755120    -0.11100
C65         C  0.63151642  0.26550098  0.25640076     0.02500
C66         C  0.61668178  0.28651880  0.23561741    -0.09700
C67         C  0.58637707  0.28760839  0.23582049     0.05000
C68         C  0.57082920  0.26744973  0.25701425    -0.09100
H69         H  0.62760688  0.22915167  0.29356067     0.10600
H70         H  0.62872127  0.30197527  0.21923040     0.08100
H71         H  0.54738227  0.26810861  0.25715914     0.08000
C72         C  0.91432841  0.28001397  0.26913661     0.05000
C73         C  0.88401416  0.28048932  0.26869732    -0.11100
C74         C  0.86871065  0.25919101  0.24859240     0.02500
C75         C  0.88370024  0.23732586  0.22877591    -0.09700
C76         C  0.91401767  0.23664014  0.22895724     0.05000
C77         C  0.92941777  0.25803983  0.24919686    -0.09100
H78         H  0.87232481  0.29738348  0.28407290     0.10600
H79         H  0.87177123  0.22078344  0.21326834     0.08100
H80         H  0.95286635  0.25755574  0.24946964     0.08000
O81         O  0.04040240  0.46844511  0.54916250    -0.79000
O82         O  0.95060829  0.56865850  0.49239669    -0.63700
O83         O  0.99132250  0.49068548  0.51455527    -1.10300
C84         C  0.05349138  0.52368008  0.43011595     1.07900
O85         O  0.95231725  0.55841282  0.44044845    -0.76900
O86         O  0.98103218  0.50444234  0.41906671    -0.64500
Ni87       Ni  0.00098982  0.48180391  0.55821384     1.34900
C88         C  0.98760330  0.47603470  0.42939185     0.86600
O89         O  0.93978180  0.52100739  0.53368690    -0.77500
O90         O  0.96232574  0.49249504  0.57227208    -0.87700
C91         C  0.94124691  0.57284983  0.46443987     0.86200
O92         O  0.01442226  0.52494918  0.56895118    -0.65900
O93         O  0.03191012  0.53949602  0.41893547    -0.85200
C94         C  0.00640976  0.55319485  0.55946084     0.87000
C95         C  0.94016030  0.50681917  0.56066697     1.08600
H96         H  0.01316467  0.55617482  0.48335234     0.40400
O97         O  0.00167869  0.53793135  0.47562158    -1.07900
O98         O  0.00298903  0.47114728  0.45402833    -0.64500
Ni99       Ni  0.02219017  0.49842681  0.48521354     1.26300
O100        O  0.98935998  0.55770496  0.53607456    -0.64800
O101        O  0.05291749  0.50734696  0.45594955    -0.77000
C102        C  0.05099547  0.45409512  0.52486567     0.86400
O103        O  0.04199486  0.45945395  0.49695242    -0.64200
Ni104      Ni  0.99248646  0.54772625  0.43199846     1.27400
Ni105      Ni  0.97064648  0.53004822  0.50467016     1.26100
H106        H  0.97986502  0.47225785  0.50718748     0.40900
C107        C  0.41210580  0.73635389  0.76780314     0.05000
C108        C  0.38175130  0.73618397  0.76662685    -0.11100
C109        C  0.36696548  0.75773292  0.74623572     0.02500
C110        C  0.38250799  0.77943631  0.72683232    -0.09700
C111        C  0.41280393  0.77989796  0.72771141     0.05000
C112        C  0.42768485  0.75830417  0.74825946    -0.09100
H113        H  0.36964281  0.71942240  0.78169201     0.10600
H114        H  0.37098752  0.79614124  0.71112399     0.08100
H115        H  0.45112227  0.75862918  0.74908654     0.08000
C116        C  0.08386697  0.78586777  0.76472653     0.05000
C117        C  0.06874683  0.76532618  0.74345793    -0.11100
C118        C  0.08409352  0.74513526  0.72207731     0.02500
C119        C  0.11442564  0.74564158  0.72205258    -0.09700
C120        C  0.12947956  0.76610407  0.74320692     0.05000
C121        C  0.11419334  0.78614192  0.76451066    -0.09100
H122        H  0.04529318  0.76503270  0.74356576     0.10600
H123        H  0.12631570  0.73004119  0.70562869     0.08100
H124        H  0.12589231  0.80196029  0.78091071     0.08000
O125        O  0.04824804  0.05580980  0.95097547    -0.79000
O126        O  0.95315528  0.95656834  0.99564817    -0.63700
O127        O  0.99700902  0.03423882  0.98165935    -1.10300
C128        C  0.05422227  0.99408242  0.06729666     1.07900
O129        O  0.95359323  0.96063063  0.04847336    -0.76900
O130        O  0.98046041  0.01408743  0.07375680    -0.64500
Ni131      Ni  0.00869909  0.04597389  0.93920959     1.34900
C132        C  0.98912042  0.04277686  0.06646480     0.86600
O133        O  0.94552249  0.00779608  0.95765344    -0.77500
O134        O  0.97021483  0.03880932  0.92265339    -0.87700
C135        C  0.94316439  0.94922928  0.02268251     0.86200
O136        O  0.02064930  0.00316869  0.92551853    -0.65900
O137        O  0.03143035  0.97928625  0.07657218    -0.85200
C138        C  0.01162694  0.97468191  0.93292809     0.87000
C139        C  0.94731246  0.02420581  0.93192194     1.08600
H140        H  0.01553505  0.96557302  0.00925904     0.40400
O141        O  0.00432782  0.98374423  0.01761926    -1.07900
O142        O  0.00688372  0.04863045  0.04404354    -0.64500
Ni143      Ni  0.02644631  0.02295176  0.01177373     1.26300
O144        O  0.99393041  0.96922919  0.95544572    -0.64800
O145        O  0.05580872  0.01063719  0.04166365    -0.77000
C146        C  0.05837426  0.06806774  0.97652677     0.86400
O147        O  0.04788896  0.06174105  0.00359455    -0.64200
Ni148      Ni  0.99301462  0.97148749  0.06006342     1.27400
Ni149      Ni  0.97476113  0.99522443  0.98761920     1.26100
H150        H  0.98585379  0.05255530  0.98980497     0.40900
C151        C  0.22489911  0.28170792  0.57347171     0.05000
C152        C  0.22549498  0.28047250  0.60680352    -0.11100
C153        C  0.24553147  0.26030373  0.62233471     0.02500
C154        C  0.26499239  0.24138789  0.60463382    -0.09700
C155        C  0.26447390  0.24259191  0.57132423     0.05000
C156        C  0.24442032  0.26277054  0.55560471    -0.09100
H157        H  0.21039121  0.29515424  0.62061157     0.10600
H158        H  0.28054081  0.22575248  0.61676364     0.08100
H159        H  0.24397954  0.26368628  0.52979339     0.08000
C160        C  0.27376625  0.27579863  0.93261979     0.05000
C161        C  0.25482657  0.25506678  0.94926936    -0.11100
C162        C  0.23563147  0.23489428  0.93227817     0.02500
C163        C  0.23543834  0.23541934  0.89895005    -0.09700
C164        C  0.25434355  0.25612243  0.88248955     0.05000
C165        C  0.27349676  0.27630423  0.89927220    -0.09100
H166        H  0.25500110  0.25465893  0.97509721     0.10600
H167        H  0.22051978  0.21981916  0.88584757     0.08100
H168        H  0.28818875  0.29235512  0.88641419     0.08000
O169        O  0.45792977  0.46229883  0.94863596    -0.79000
O170        O  0.54530888  0.56684190  0.99920447    -0.63700
O171        O  0.50724318  0.48606906  0.98136992    -1.10300
C172        C  0.44491186  0.52032197  0.06526228     1.07900
O173        O  0.54442803  0.55842931  0.05147742    -0.76900
O174        O  0.51729506  0.50526199  0.07644233    -0.64500
Ni175      Ni  0.49757873  0.47383190  0.93859649     1.34900
C176        C  0.51200067  0.47600738  0.06751482     0.86600
O177        O  0.55726552  0.51748759  0.95956735    -0.77500
O178        O  0.53655532  0.48262033  0.92456390    -0.87700
C179        C  0.55466723  0.57257195  0.02693947     0.86200
O180        O  0.48488913  0.51606639  0.92369550    -0.65900
O181        O  0.46573473  0.53837705  0.07485241    -0.85200
C182        C  0.49093995  0.54523502  0.93239954     0.87000
C183        C  0.55789134  0.49966099  0.93457814     1.08600
H184        H  0.48321590  0.55172157  0.00976392     0.40400
O185        O  0.49554013  0.53454643  0.01818402    -1.07900
O186        O  0.49718624  0.46893002  0.04292661    -0.64500
Ni187      Ni  0.47651754  0.49362220  0.01086293     1.26300
O188        O  0.50637171  0.55189515  0.95665341    -0.64800
O189        O  0.44590146  0.50227068  0.04047480    -0.77000
C190        C  0.44826581  0.44770199  0.97325699     0.86400
O191        O  0.45811589  0.45327888  0.00080242    -0.64200
Ni192      Ni  0.50471917  0.54721028  0.06102158     1.27400
Ni193      Ni  0.52651005  0.52675320  0.98890296     1.26100
H194        H  0.51954327  0.46872460  0.98950827     0.40900
C195        C  0.74240826  0.80383280  0.43353665     0.05000
C196        C  0.74268390  0.80629100  0.40029341    -0.11100
C197        C  0.75966810  0.78482999  0.38224559     0.02500
C198        C  0.77659588  0.76098899  0.39733994    -0.09700
C199        C  0.77648191  0.75848811  0.43059881     0.05000
C200        C  0.75934867  0.77990964  0.44886052    -0.09100
H201        H  0.72922761  0.82446657  0.38844049     0.10600
H202        H  0.78965021  0.74421429  0.38321680     0.08100
H203        H  0.75895477  0.77775204  0.47459936     0.08000
C204        C  0.76386132  0.78915330  0.07120610     0.05000
C205        C  0.74463488  0.76694422  0.05692113    -0.11100
C206        C  0.72508485  0.74939129  0.07593021     0.02500
C207        C  0.72475050  0.75403581  0.10897000    -0.09700
C208        C  0.74399216  0.77620585  0.12309104     0.05000
C209        C  0.76355276  0.79373518  0.10425575    -0.09100
H210        H  0.74489314  0.76334577  0.03132060     0.10600
H211        H  0.70966045  0.74031412  0.12365349     0.08100
H212        H  0.77858521  0.81082277  0.11530226     0.08000
C213        C  0.74856916  0.78482037  0.21940713     0.18900
C214        C  0.77384397  0.77301422  0.23383266    -0.10200
C215        C  0.77674325  0.77407323  0.26690940    -0.11100
C216        C  0.75437091  0.78696452  0.28560627     0.20500
C217        C  0.72913815  0.79896556  0.27119393    -0.13100
C218        C  0.72623296  0.79789984  0.23807526    -0.11400
C219        C  0.75703254  0.78710342  0.31960643     0.01400
C220        C  0.75873459  0.78641215  0.34816445    -0.31400
C221        C  0.74557610  0.78295086  0.18548249     0.02800
C222        C  0.74425977  0.78031639  0.15699961    -0.33100
H223        H  0.79119258  0.76281471  0.21952916     0.13900
H224        H  0.79628370  0.76465200  0.27790061     0.13700
H225        H  0.71169826  0.80888718  0.28554369     0.13500
H226        H  0.70659239  0.80703504  0.22707804     0.12600
C227        C  0.66515337  0.68335507  0.04631873     0.18900
C228        C  0.67166236  0.64964598  0.04526877    -0.10200
C229        C  0.64953519  0.62666882  0.04072828    -0.11100
C230        C  0.62090865  0.63741994  0.03731224     0.20500
C231        C  0.61445669  0.67113617  0.03807299    -0.13100
C232        C  0.63656438  0.69409197  0.04260540    -0.11400
C233        C  0.59802556  0.61393057  0.03357763     0.01400
C234        C  0.57837262  0.59479159  0.03062762    -0.31400
C235        C  0.68742811  0.70680215  0.05332190     0.02800
C236        C  0.70521011  0.72645828  0.06199205    -0.33100
H237        H  0.69370550  0.64114874  0.04843567     0.13900
H238        H  0.65466996  0.60060246  0.04023748     0.13700
H239        H  0.59234198  0.67961847  0.03552273     0.13500
H240        H  0.63133317  0.72011557  0.04370409     0.12600
C241        C  0.38172105  0.38248195  0.96732683     0.18900
C242        C  0.35489946  0.38974417  0.98123151    -0.10200
C243        C  0.33219436  0.36706849  0.97909384    -0.11100
C244        C  0.33637820  0.33708765  0.96316489     0.20500
C245        C  0.36331571  0.32969887  0.94966749    -0.13100
C246        C  0.38596025  0.35233761  0.95177092    -0.11400
C247        C  0.31263460  0.31496219  0.95807152     0.01400
C248        C  0.29394042  0.29657132  0.94906704    -0.31400
C249        C  0.40487420  0.40597689  0.96872473     0.02800
C250        C  0.42460082  0.42525151  0.97014024    -0.33100
H251        H  0.35146005  0.41303114  0.99332436     0.13900
H252        H  0.31132697  0.37313359  0.98928938     0.13700
H253        H  0.36662732  0.30671948  0.93698452     0.13500
H254        H  0.40662680  0.34652608  0.94095195     0.12600
C255        C  0.25177632  0.25700187  0.78563368     0.18900
C256        C  0.27556427  0.26777335  0.76782917    -0.10200
C257        C  0.27412849  0.26800441  0.73459751    -0.11100
C258        C  0.24890252  0.25747949  0.71915443     0.20500
C259        C  0.22515479  0.24658122  0.73695931    -0.13100
C260        C  0.22659195  0.24634660  0.77019262    -0.11400
C261        C  0.24732616  0.25818022  0.68506060     0.01400
C262        C  0.24628318  0.25909942  0.65645796    -0.31400
C263        C  0.25314863  0.25693949  0.81973704     0.02800
C264        C  0.25393627  0.25671503  0.84835654    -0.33100
H265        H  0.29512654  0.27603618  0.77961644     0.13900
H266        H  0.29259122  0.27646794  0.72097159     0.13700
H267        H  0.20556448  0.23839992  0.72517637     0.13500
H268        H  0.20810492  0.23795989  0.78382475     0.12600
C269        C  0.87266953  0.88951087  0.02609888     0.18900
C270        C  0.84761044  0.90084373  0.04125468    -0.10200
C271        C  0.82396061  0.87983777  0.04492417    -0.11100
C272        C  0.82528695  0.84746284  0.03340418     0.20500
C273        C  0.85005222  0.83635633  0.01745461    -0.13100
C274        C  0.87374640  0.85742074  0.01375036    -0.11400
C275        C  0.80248068  0.82496175  0.04119932     0.01400
C276        C  0.78416510  0.80752220  0.05252331    -0.31400
C277        C  0.89761896  0.91041946  0.02454999     0.02800
C278        C  0.91845030  0.92814384  0.02401075    -0.33100
H279        H  0.84663500  0.92560337  0.05092123     0.13900
H280        H  0.80500456  0.88849156  0.05761639     0.13700
H281        H  0.85136304  0.81122756  0.00878867     0.13500
H282        H  0.89309940  0.84846726  0.00202533     0.12600
C283        C  0.17434283  0.17250072  0.96466754     0.18900
C284        C  0.14707707  0.18450748  0.97343155    -0.10200
C285        C  0.12389447  0.16274318  0.97691122    -0.11100
C286        C  0.12794305  0.12897726  0.97153363     0.20500
C287        C  0.15530045  0.11690094  0.96323287    -0.13100
C288        C  0.17848541  0.13866628  0.95975830    -0.11400
C289        C  0.10380653  0.10692616  0.97353456     0.01400
C290        C  0.08319676  0.08892520  0.97479396    -0.31400
C291        C  0.19735259  0.19509432  0.95789445     0.02800
C292        C  0.21564475  0.21371442  0.94842482    -0.33100
H293        H  0.14361341  0.21069494  0.97687286     0.13900
H294        H  0.10275282  0.17227121  0.98322805     0.13700
H295        H  0.15856656  0.09081764  0.95892016     0.13500
H296        H  0.19943299  0.12924252  0.95257408     0.12600
C297        C  0.03477135  0.89926029  0.87372973     0.18900
C298        C  0.04674248  0.86933174  0.88399350    -0.10200
C299        C  0.05412572  0.84495865  0.86175123    -0.11100
C300        C  0.04952172  0.85034141  0.82912993     0.20500
C301        C  0.03726187  0.88013043  0.81893385    -0.13100
C302        C  0.02988745  0.90447841  0.84115220    -0.11400
C303        C  0.05884811  0.82616603  0.80604335     0.01400
C304        C  0.06877836  0.80704953  0.78683992    -0.31400
C305        C  0.02771027  0.92482184  0.89637771     0.02800
C306        C  0.02111554  0.94715811  0.91399625    -0.33100
H307        H  0.05061643  0.86497479  0.90909859     0.13900
H308        H  0.06376317  0.82212999  0.86993966     0.13700
H309        H  0.03376324  0.88470800  0.79379820     0.13500
H310        H  0.02063718  0.92749475  0.83290524     0.12600
C311        C  0.46449948  0.62031729  0.87370446     0.18900
C312        C  0.47293556  0.61875944  0.84162151    -0.10200
C313        C  0.46425846  0.64333180  0.82013745    -0.11100
C314        C  0.44708310  0.66976275  0.83050882     0.20500
C315        C  0.43891950  0.67153006  0.86267424    -0.13100
C316        C  0.44759962  0.64694760  0.88416714    -0.11400
C317        C  0.43687451  0.69425644  0.80799491     0.01400
C318        C  0.42677644  0.71395554  0.78933980    -0.31400
C319        C  0.47292396  0.59441767  0.89563741     0.02800
C320        C  0.48048796  0.57223828  0.91310512    -0.33100
H321        H  0.48601101  0.59838779  0.83314230     0.13900
H322        H  0.47067645  0.64151578  0.79537657     0.13700
H323        H  0.42557614  0.69171130  0.87106998     0.13500
H324        H  0.44091830  0.64856133  0.90885587     0.12600
C325        C  0.21790423  0.76440170  0.74328955     0.18900
C326        C  0.23187249  0.73375571  0.74446377    -0.10200
C327        C  0.26210348  0.73210573  0.74479597    -0.11100
C328        C  0.27855546  0.76109706  0.74396272     0.20500
C329        C  0.26459926  0.79177512  0.74264881    -0.13100
C330        C  0.23433788  0.79342669  0.74232000    -0.11400
C331        C  0.30969600  0.75933988  0.74472093     0.01400
C332        C  0.33578125  0.75813245  0.74549277    -0.31400
C333        C  0.18675812  0.76590896  0.74319897     0.02800
C334        C  0.16065407  0.76632642  0.74319566    -0.33100
H335        H  0.21939533  0.71115796  0.74520331     0.13900
H336        H  0.27263602  0.70825868  0.74580370     0.13700
H337        H  0.27708976  0.81436624  0.74198356     0.13500
H338        H  0.22378269  0.81726646  0.74139233     0.12600
C339        C  0.16210538  0.34310542  0.54176536     0.18900
C340        C  0.13349168  0.33373654  0.54794328    -0.10200
C341        C  0.11105878  0.35647166  0.54409617    -0.11100
C342        C  0.11718839  0.38865898  0.53413073     0.20500
C343        C  0.14574253  0.39787464  0.52738474    -0.13100
C344        C  0.16819636  0.37512182  0.53124483    -0.11400
C345        C  0.09420763  0.41230219  0.53136443     0.01400
C346        C  0.07463199  0.43170892  0.52893806    -0.31400
C347        C  0.18527187  0.32069639  0.54879084     0.02800
C348        C  0.20396672  0.30245573  0.55813149    -0.33100
H349        H  0.12861156  0.30910985  0.55636595     0.13900
H350        H  0.08903374  0.34912628  0.54934594     0.13700
H351        H  0.15067098  0.42272215  0.51963678     0.13500
H352        H  0.19029537  0.38266214  0.52668336     0.12600
C353        C  0.83239979  0.68712803  0.45664440     0.18900
C354        C  0.86161805  0.69564164  0.45363490    -0.10200
C355        C  0.88284458  0.67118601  0.45434769    -0.11100
C356        C  0.87494764  0.63809233  0.45797633     0.20500
C357        C  0.84574245  0.62951781  0.46136397    -0.13100
C358        C  0.82445184  0.65404166  0.46061485    -0.11400
C359        C  0.89704002  0.61323499  0.45852727     0.01400
C360        C  0.91680888  0.59400468  0.46010770    -0.31400
C361        C  0.81073006  0.71215353  0.45277062     0.02800
C362        C  0.79411505  0.73361933  0.44523342    -0.33100
H363        H  0.86794097  0.72111388  0.45017138     0.13900
H364        H  0.90538352  0.67803854  0.45179497     0.13700
H365        H  0.83945538  0.60396411  0.46427683     0.13500
H366        H  0.80186767  0.64719425  0.46258346     0.12600
C367        C  0.05008848  0.67971798  0.65816259     0.18900
C368        C  0.07076747  0.66258572  0.64015255    -0.10200
C369        C  0.06213845  0.63819537  0.61851392    -0.11100
C370        C  0.03274162  0.63072720  0.61466817     0.20500
C371        C  0.01200649  0.64807076  0.63245408    -0.13100
C372        C  0.02064815  0.67249310  0.65412612    -0.11400
C373        C  0.02398844  0.60448803  0.59341557     0.01400
C374        C  0.01644761  0.58158193  0.57691710    -0.31400
C375        C  0.05935837  0.70407640  0.68115498     0.02800
C376        C  0.06922016  0.72346959  0.70017434    -0.33100
H377        H  0.09359547  0.66786627  0.64306513     0.13900
H378        H  0.07840357  0.62492523  0.60504734     0.13700
H379        H  0.98921165  0.64247173  0.62982308     0.13500
H380        H  0.00443300  0.68548392  0.66791315     0.12600
C381        C  0.94720625  0.16755260  0.16827908     0.18900
C382        C  0.93776805  0.13503417  0.17277705    -0.10200
C383        C  0.94565071  0.11033122  0.15112543    -0.11100
C384        C  0.96298425  0.11794571  0.12474052     0.20500
C385        C  0.97244174  0.15046574  0.12021841    -0.13100
C386        C  0.96454527  0.17519873  0.14189259    -0.11400
C387        C  0.97140093  0.09226319  0.10272725     0.01400
C388        C  0.97894146  0.07007795  0.08534894    -0.31400
C389        C  0.93827778  0.19306266  0.19023117     0.02800
C390        C  0.92875342  0.21358404  0.20832188    -0.33100
H391        H  0.92423023  0.12880025  0.19295929     0.13900
H392        H  0.93823644  0.08530709  0.15496268     0.13700
H393        H  0.98589942  0.15668962  0.09997267     0.13500
H394        H  0.97186429  0.20025006  0.13802246     0.12600
C395        C  0.96360607  0.39771628  0.37399568     0.18900
C396        C  0.94053765  0.37658441  0.38123125    -0.10200
C397        C  0.93285246  0.35132687  0.36006126    -0.11100
C398        C  0.94818974  0.34698935  0.33152302     0.20500
C399        C  0.97148437  0.36786000  0.32448787    -0.13100
C400        C  0.97917282  0.39310735  0.34565730    -0.11400
C401        C  0.93911330  0.32213978  0.30894437     0.01400
C402        C  0.92937571  0.30226734  0.29032043    -0.31400
C403        C  0.97096438  0.42458972  0.39512162     0.02800
C404        C  0.97784792  0.44778308  0.41157499    -0.33100
H405        H  0.92830121  0.37986329  0.40301557     0.13900
H406        H  0.91471567  0.33546904  0.36573826     0.13700
H407        H  0.98344445  0.36490119  0.30247737     0.13500
H408        H  0.99703518  0.40927543  0.33975170     0.12600
C409        C  0.55289805  0.35333250  0.17196318     0.18900
C410        C  0.56268409  0.35136945  0.14038827    -0.10200
C411        C  0.55497259  0.37571483  0.11829320    -0.11100
C412        C  0.53745298  0.40223354  0.12762499     0.20500
C413        C  0.52748323  0.40406153  0.15913978    -0.13100
C414        C  0.53519583  0.37971879  0.18123341    -0.11400
C415        C  0.52976060  0.42763700  0.10503736     0.01400
C416        C  0.52248223  0.44940097  0.08706981    -0.31400
C417        C  0.56209808  0.32910565  0.19506239     0.02800
C418        C  0.57175226  0.30961018  0.21407518    -0.33100
H419        H  0.57650617  0.33120784  0.13293700     0.13900
H420        H  0.56281701  0.37397582  0.09403041     0.13700
H421        H  0.51391348  0.42441087  0.16667976     0.13500
H422        H  0.52760397  0.38164827  0.20558144     0.12600
C423        C  0.78037337  0.26074219  0.25001663     0.18900
C424        C  0.76481644  0.23167695  0.25565659    -0.10200
C425        C  0.73458633  0.23247789  0.25720784    -0.11100
C426        C  0.71979696  0.26235061  0.25312889     0.20500
C427        C  0.73535608  0.29138755  0.24739005    -0.13100
C428        C  0.76557650  0.29058730  0.24584231    -0.11400
C429        C  0.68869810  0.26324068  0.25472176     0.01400
C430        C  0.66263905  0.26421218  0.25573130    -0.31400
C431        C  0.81148992  0.26004029  0.24894080     0.02800
C432        C  0.83757023  0.25960764  0.24853026    -0.33100
H433        H  0.77604430  0.20846965  0.25894639     0.13900
H434        H  0.72277097  0.20987127  0.26162343     0.13700
H435        H  0.72413848  0.31461108  0.24416627     0.13500
H436        H  0.77739041  0.31321033  0.24149880     0.12600
C437        C  0.87770590  0.03035470  0.87195447     0.18900
C438        C  0.88248906  0.02979178  0.83895991    -0.10200
C439        C  0.85940937  0.03461903  0.81781417    -0.11100
C440        C  0.83138422  0.03997038  0.82951975     0.20500
C441        C  0.82651261  0.03976496  0.86248646    -0.13100
C442        C  0.84958105  0.03494278  0.88362216    -0.11400
C443        C  0.80816501  0.04839740  0.80797438     0.01400
C444        C  0.78944164  0.05885917  0.79059241    -0.31400
C445        C  0.90174783  0.02756346  0.89378812     0.02800
C446        C  0.92219554  0.02601440  0.91169219    -0.33100
H447        H  0.90412227  0.02630986  0.82960701     0.13900
H448        H  0.86353037  0.03497094  0.79240721     0.13700
H449        H  0.80501456  0.04412672  0.87186947     0.13500
H450        H  0.84558232  0.03547517  0.90904868     0.12600
C451        C  0.62890837  0.49254821  0.87725188     0.18900
C452        C  0.65034139  0.46890333  0.88326595    -0.10200
C453        C  0.67234470  0.46338826  0.86098378    -0.11100
C454        C  0.67307012  0.48147968  0.83254199     0.20500
C455        C  0.65190365  0.50548954  0.82674084    -0.13100
C456        C  0.62989103  0.51101389  0.84903961    -0.11400
C457        C  0.69443020  0.47381924  0.80860951     0.01400
C458        C  0.71141301  0.46434619  0.78875474    -0.31400
C459        C  0.60507903  0.49656005  0.89911332     0.02800
C460        C  0.58411670  0.49863746  0.91617185    -0.33100
H461        H  0.64973012  0.45431265  0.90486666     0.13900
H462        H  0.68844807  0.44457243  0.86563945     0.13700
H463        H  0.65208889  0.51945344  0.80474921     0.13500
H464        H  0.61334564  0.52921340  0.84401081     0.12600
C465        C  0.82505526  0.49062424  0.66287066     0.18900
C466        C  0.81872443  0.49756305  0.63088507    -0.10200
C467        C  0.84118263  0.50355445  0.60922254    -0.11100
C468        C  0.87005575  0.50257102  0.61945850     0.20500
C469        C  0.87628945  0.49646138  0.65158984    -0.13100
C470        C  0.85388349  0.49048936  0.67320228    -0.11400
C471        C  0.89344940  0.50594385  0.59696426     0.01400
C472        C  0.91419090  0.50698756  0.57951103    -0.31400
C473        C  0.80243306  0.48081541  0.68453407     0.02800
C474        C  0.78494112  0.46914712  0.70266493    -0.33100
H475        H  0.79653932  0.49747752  0.62254148     0.13900
H476        H  0.83608205  0.50814715  0.58442447     0.13700
H477        H  0.89851039  0.49551567  0.65978001     0.13500
H478        H  0.85908544  0.48488784  0.69778365     0.12600
C479        C  0.75057239  0.29738884  0.74362337     0.18900
C480        C  0.73380070  0.27895627  0.72225047    -0.10200
C481        C  0.73392764  0.24450340  0.72379669    -0.11100
C482        C  0.75081597  0.22836817  0.74673005     0.20500
C483        C  0.76761178  0.24680262  0.76806416    -0.13100
C484        C  0.76748447  0.28124303  0.76651878    -0.11400
C485        C  0.75077650  0.19294980  0.74849615     0.01400
C486        C  0.75047378  0.16327158  0.74989320    -0.31400
C487        C  0.75018391  0.33283301  0.74237842     0.02800
C488        C  0.74972955  0.36254699  0.74211133    -0.33100
H489        H  0.72059786  0.29119871  0.70450003     0.13900
H490        H  0.72083596  0.23047422  0.70720516     0.13700
H491        H  0.78072092  0.23456939  0.78590470     0.13500
H492        H  0.78048232  0.29526656  0.78320291     0.12600
C493        C  0.37086946  0.13595345  0.53092621     0.18900
C494        C  0.34206208  0.12568151  0.52803459    -0.10200
C495        C  0.31964550  0.14861075  0.53101965    -0.11100
C496        C  0.32602053  0.18184552  0.53678756     0.20500
C497        C  0.35484745  0.19220438  0.53903944    -0.13100
C498        C  0.37724844  0.16929133  0.53606077    -0.11400
C499        C  0.30312910  0.20461601  0.54375090     0.01400
C500        C  0.28474466  0.22277950  0.55391963    -0.31400
C501        C  0.39389945  0.11226278  0.52953434     0.02800
C502        C  0.41377136  0.09312136  0.52860348    -0.33100
H503        H  0.33694203  0.09992787  0.52410828     0.13900
H504        H  0.29739595  0.14031985  0.52966224     0.13700
H505        H  0.35996567  0.21778816  0.54391820     0.13500
H506        H  0.39947677  0.17743626  0.53837732     0.12600
C507        C  0.63038805  0.90277891  0.47320768     0.18900
C508        C  0.65800901  0.91701340  0.47384468    -0.10200
C509        C  0.68257495  0.89708914  0.47085183    -0.11100
C510        C  0.67952583  0.86290656  0.46735583     0.20500
C511        C  0.65191970  0.84869483  0.46715087    -0.13100
C512        C  0.62740382  0.86857970  0.47010935    -0.11400
C513        C  0.70428394  0.84261277  0.46086789     0.01400
C514        C  0.72311463  0.82482238  0.45103774    -0.31400
C515        C  0.60502787  0.92316430  0.47502625     0.02800
C516        C  0.58335588  0.93958065  0.47633381    -0.33100
H517        H  0.66051480  0.94346962  0.47614948     0.13900
H518        H  0.70382644  0.90835184  0.47058643     0.13700
H519        H  0.64933622  0.82233654  0.46400088     0.13500
H520        H  0.60613698  0.85736178  0.46949498     0.12600
C521        C  0.55012732  0.17999169  0.33965729     0.18900
C522        C  0.54681385  0.18682076  0.37223046    -0.10200
C523        C  0.53857478  0.16174049  0.39335182    -0.11100
C524        C  0.53367374  0.12966861  0.38202486     0.20500
C525        C  0.53678451  0.12296945  0.34943640    -0.13100
C526        C  0.54499709  0.14799619  0.32836146    -0.11400
C527        C  0.52555708  0.10346447  0.40356133     0.01400
C528        C  0.51838554  0.08038054  0.41997800    -0.31400
C529        C  0.56011590  0.20520008  0.31798613     0.02800
C530        C  0.57041559  0.22486192  0.29956539    -0.33100
H531        H  0.55087958  0.21139469  0.38132643     0.13900
H532        H  0.53623145  0.16729122  0.41847056     0.13700
H533        H  0.53305233  0.09832324  0.34034334     0.13500
H534        H  0.54764404  0.14230849  0.30330489     0.12600
C535        C  0.46104720  0.89923795  0.62381704     0.18900
C536        C  0.43411545  0.88356425  0.62124645    -0.10200
C537        C  0.42649633  0.85849294  0.64262302    -0.11100
C538        C  0.44572523  0.84884471  0.66676850     0.20500
C539        C  0.47270834  0.86442308  0.66926828    -0.13100
C540        C  0.48033314  0.88950365  0.64787775    -0.11400
C541        C  0.43731765  0.82353351  0.68923252     0.01400
C542        C  0.42793884  0.80298580  0.70740770    -0.31400
C543        C  0.46869628  0.92574272  0.60233225     0.02800
C544        C  0.47573292  0.94864931  0.58556479    -0.33100
H545        H  0.41894133  0.89086026  0.60287493     0.13900
H546        H  0.40552282  0.84677629  0.64045371     0.13700
H547        H  0.48775522  0.85734852  0.68784316     0.13500
H548        H  0.50118520  0.90145533  0.65023522     0.12600
C549        C  0.66428024  0.04320287  0.67540330     0.18900
C550        C  0.63587946  0.03985387  0.68663836    -0.10200
C551        C  0.61297123  0.03584925  0.66514379    -0.11100
C552        C  0.61829224  0.03524608  0.63226665     0.20500
C553        C  0.64673052  0.03820625  0.62103343    -0.13100
C554        C  0.66964644  0.04220866  0.64253601    -0.11400
C555        C  0.59449286  0.03236330  0.61016752     0.01400
C556        C  0.57406474  0.03037683  0.59230523    -0.31400
C557        C  0.68754053  0.05018330  0.69733839     0.02800
C558        C  0.70652446  0.05962670  0.71490018    -0.33100
H559        H  0.63138864  0.04092893  0.71195039     0.13900
H560        H  0.59108418  0.03367557  0.67413263     0.13700
H561        H  0.65113634  0.03786835  0.59568495     0.13500
H562        H  0.69145775  0.04511852  0.63352078     0.12600
C563        C  0.16838294  0.97558479  0.17154852     0.18900
C564        C  0.17284716  0.96974298  0.13898815    -0.10200
C565        C  0.15049985  0.97523642  0.11708655    -0.11100
C566        C  0.12348820  0.98658846  0.12757914     0.20500
C567        C  0.11918678  0.99307772  0.16007135    -0.13100
C568        C  0.14154992  0.98756463  0.18199400    -0.11400
C569        C  0.09985918  0.99017039  0.10529552     0.01400
C570        C  0.07946499  0.99218147  0.08734999    -0.31400
C571        C  0.19066561  0.96703432  0.19422250     0.02800
C572        C  0.20906358  0.95671064  0.21209745    -0.33100
H573        H  0.19340633  0.96026469  0.13061625     0.13900
H574        H  0.15411223  0.97002978  0.09208154     0.13700
H575        H  0.09839273  0.00177693  0.16852479     0.13500
H576        H  0.13772434  0.99197262  0.20710338     0.12600
C577        C  0.33246909  0.97691272  0.32850091     0.18900
C578        C  0.35993202  0.96320921  0.32345510    -0.10200
C579        C  0.38231857  0.96907751  0.34516499    -0.11100
C580        C  0.37743862  0.98866948  0.37214718     0.20500
C581        C  0.35007073  0.00275350  0.37704489    -0.13100
C582        C  0.32762447  0.99685867  0.35528718    -0.11400
C583        C  0.40047580  0.99369340  0.39487798     0.01400
C584        C  0.42059781  0.99679677  0.41302387    -0.31400
C585        C  0.30909006  0.96870319  0.30710838     0.02800
C586        C  0.29056563  0.95825673  0.28947052    -0.33100
H587        H  0.36391942  0.94756386  0.30298133     0.13900
H588        H  0.40334445  0.95802615  0.34109839     0.13700
H589        H  0.34600627  0.01793698  0.39781549     0.13500
H590        H  0.30644887  0.00742009  0.35958668     0.12600
C591        C  0.33063004  0.52946371  0.16947924     0.18900
C592        C  0.32573077  0.53779669  0.13751279    -0.10200
C593        C  0.34777801  0.53390757  0.11496446    -0.11100
C594        C  0.37485640  0.52170710  0.12427432     0.20500
C595        C  0.37953545  0.51265048  0.15609288    -0.13100
C596        C  0.35749398  0.51654615  0.17863806    -0.11400
C597        C  0.39832575  0.52018567  0.10171145     0.01400
C598        C  0.41897652  0.51999922  0.08411897    -0.31400
C599        C  0.30917979  0.53722447  0.19324497     0.02800
C600        C  0.29239959  0.54776498  0.21278359    -0.33100
H601        H  0.30516316  0.54815612  0.13020295     0.13900
H602        H  0.34394252  0.54114925  0.09048345     0.13700
H603        H  0.40042603  0.50334592  0.16361540     0.13500
H604        H  0.36165827  0.51036384  0.20332606     0.12600
C605        C  0.12744299  0.52626586  0.37681740     0.18900
C606        C  0.15363722  0.53781803  0.38944113    -0.10200
C607        C  0.17774680  0.54184944  0.36962204    -0.11100
C608        C  0.17581206  0.53429342  0.33708374     0.20500
C609        C  0.14985184  0.52188317  0.32466274    -0.13100
C610        C  0.12575625  0.51785395  0.34446988    -0.11400
C611        C  0.19948188  0.54204164  0.31599191     0.01400
C612        C  0.21797377  0.55179915  0.29800392    -0.31400
C613        C  0.10193121  0.52461575  0.39655299     0.02800
C614        C  0.08003952  0.52411461  0.41225230    -0.33100
H615        H  0.15521662  0.54445924  0.41438903     0.13900
H616        H  0.19761875  0.55170002  0.37947583     0.13700
H617        H  0.14799913  0.51619035  0.29951949     0.13500
H618        H  0.10562718  0.50895505  0.33440515     0.12600
C619        C  0.25550498  0.78813189  0.24911997     0.18900
C620        C  0.27880079  0.77205521  0.26380887    -0.10200
C621        C  0.27974296  0.73759190  0.26476238    -0.11100
C622        C  0.25738440  0.71906840  0.25104559     0.20500
C623        C  0.23416054  0.73514229  0.23622370    -0.13100
C624        C  0.23321875  0.76960074  0.23526929    -0.11400
C625        C  0.25805294  0.68362708  0.25250440     0.01400
C626        C  0.25813568  0.65393150  0.25376655    -0.31400
C627        C  0.25430728  0.82359189  0.24859685     0.02800
C628        C  0.25325192  0.85329971  0.24861336    -0.33100
H629        H  0.29613477  0.78614476  0.27462192     0.13900
H630        H  0.29779147  0.72541445  0.27629851     0.13700
H631        H  0.21674831  0.72105574  0.22555912     0.13500
H632        H  0.21509197  0.78177494  0.22387923     0.12600
loop_ 
_geom_bond_atom_site_label_1 
_geom_bond_atom_site_label_2 
_geom_bond_distance 
_geom_bond_site_symmetry_2 
_ccdc_geom_bond_type 
C1            C2   1.401       .  A
C1            C6   1.405       .  A
C1          C600   1.441       .  S
C2            C3   1.398       .  A
C2            H7   1.085       .  S
C3            C4   1.399       .  A
C3          C626   1.439       .  S
C4            C5   1.402       .  A
C4            H8   1.085       .  S
C5            C6   1.406       .  A
C5          C612   1.442       .  S
C6            H9   1.084       .  S
C10          C11   1.402       .  A
C10          C15   1.406       .  A
C10         C572   1.444       .  S
C11          C12   1.399       .  A
C11          H16   1.085       .  S
C12          C13   1.398       .  A
C12         C628   1.440       .  S
C13          C14   1.401       .  A
C13          H17   1.085       .  S
C14          C15   1.406       .  A
C14         C586   1.443       .  S
C15          H18   1.084       .  S
O19         Ni25   1.937       .  S
O19          C40   1.272       .  A
O20         Ni43   1.895   1_565  S
O20          C29   1.263       .  A
O21         Ni25   1.921       .  S
O21         Ni43   1.907       .  S
O21         Ni37   1.913       .  S
O21          H44   0.967       .  S
C22         C584   1.439       .  S
C22          O39   1.272   1_565  A
C22          O31   1.275       .  A
O23         Ni42   1.937       .  S
O23          C29   1.272       .  A
O24         Ni42   1.912   1_545  S
O24          C26   1.268       .  A
Ni25         O28   1.932       .  S
Ni25         O30   1.912       .  S
C26         C528   1.441       .  S
C26          O36   1.270       .  A
O27         Ni43   1.912       .  S
O27          C33   1.271       .  A
O28          C33   1.274       .  A
C29         C516   1.431       .  S
O30          C32   1.269   1_545  A
O31         Ni42   1.931       .  S
C32         C544   1.443       .  S
C32          O38   1.273       .  A
C33         C556   1.439       .  S
H34          O35   0.967       .  S
O35         Ni43   1.910   1_565  S
O35         Ni37   1.906   1_565  S
O35         Ni42   1.921       .  S
O36         Ni37   1.930       .  S
Ni37         O41   1.892       .  S
Ni37         O39   1.915       .  S
O38         Ni43   1.935   1_565  S
C40         C502   1.430       .  S
C40          O41   1.262       .  A
C45          C46   1.405       .  A
C45          C50   1.401       .  A
C45         C458   1.442       .  S
C46          C47   1.406       .  A
C46          H51   1.084       .  S
C47          C48   1.402       .  A
C47         C474   1.442       .  S
C48          C49   1.399       .  A
C48          H52   1.085       .  S
C49          C50   1.398       .  A
C49         C488   1.439       .  S
C50          H53   1.085       .  S
C54          C55   1.407       .  A
C54          C59   1.402       .  A
C54         C444   1.444       .  S
C55          C56   1.407       .  A
C55          H60   1.084       .  S
C56          C57   1.400       .  A
C56         C558   1.443       .  S
C57          C58   1.397       .  A
C57          H61   1.085       .  S
C58          C59   1.399       .  A
C58         C486   1.439       .  S
C59          H62   1.085       .  S
C63          C64   1.402       .  A
C63          C68   1.407       .  A
C63         C530   1.445       .  S
C64          C65   1.399       .  A
C64          H69   1.085       .  S
C65          C66   1.399       .  A
C65         C430   1.440       .  S
C66          C67   1.401       .  A
C66          H70   1.085       .  S
C67          C68   1.407       .  A
C67         C418   1.444       .  S
C68          H71   1.084       .  S
C72          C73   1.401       .  A
C72          C77   1.407       .  A
C72         C402   1.445       .  S
C73          C74   1.399       .  A
C73          H78   1.085       .  S
C74          C75   1.399       .  A
C74         C432   1.439       .  S
C75          C76   1.401       .  A
C75          H79   1.085       .  S
C76          C77   1.407       .  A
C76         C390   1.445       .  S
C77          H80   1.084       .  S
O81         Ni87   1.938       .  S
O81         C102   1.272       .  A
O82        Ni105   1.891       .  S
O82          C91   1.262       .  A
O83         Ni87   1.920   1_655  S
O83        Ni105   1.906       .  S
O83         Ni99   1.911   1_655  S
O83         H106   0.967       .  S
C84         C614   1.438       .  S
C84         O101   1.271       .  A
C84          O93   1.275       .  A
O85        Ni104   1.939       .  S
O85          C91   1.272       .  A
O86        Ni104   1.912       .  S
O86          C88   1.268       .  A
Ni87         O90   1.931   1_455  S
Ni87         O92   1.910       .  S
C88         C404   1.440       .  S
C88          O98   1.270   1_655  A
O89        Ni105   1.912       .  S
O89          C95   1.271       .  A
O90          C95   1.274       .  A
C91         C360   1.430       .  S
O92          C94   1.268       .  A
O93        Ni104   1.932   1_455  S
C94         C374   1.441       .  S
C94         O100   1.272   1_455  A
C95         C472   1.438       .  S
H96          O97   0.967       .  S
O97        Ni105   1.910   1_455  S
O97         Ni99   1.904       .  S
O97        Ni104   1.921   1_455  S
O98         Ni99   1.929       .  S
Ni99        O103   1.892       .  S
Ni99        O101   1.913       .  S
O100       Ni105   1.934       .  S
C102        C346   1.430       .  S
C102        O103   1.262       .  A
C107        C108   1.404       .  A
C107        C112   1.409       .  A
C107        C318   1.450       .  S
C108        C109   1.401       .  A
C108        H113   1.085       .  S
C109        C110   1.399       .  A
C109        C332   1.442       .  S
C110        C111   1.401       .  A
C110        H114   1.085       .  S
C111        C112   1.409       .  A
C111        C542   1.447       .  S
C112        H115   1.084       .  S
C116        C117   1.406       .  A
C116        C121   1.402       .  A
C116        C304   1.444       .  S
C117        C118   1.406       .  A
C117        H122   1.084       .  S
C118        C119   1.402       .  A
C118        C376   1.445       .  S
C119        C120   1.400       .  A
C119        H123   1.085       .  S
C120        C121   1.399       .  A
C120        C334   1.441       .  S
C121        H124   1.085       .  S
O125       Ni131   1.935       .  S
O125        C146   1.271       .  A
O126       Ni149   1.890       .  S
O126        C135   1.261   1_556  A
O127       Ni131   1.922   1_655  S
O127       Ni149   1.904   1_545  S
O127       Ni143   1.912   1_656  S
O127        H150   0.966       .  S
C128        C570   1.440       .  S
C128        O145   1.271   1_565  A
C128        O137   1.274       .  A
O129       Ni148   1.936       .  S
O129        C135   1.272       .  A
O130       Ni148   1.910   1_545  S
O130        C132   1.268       .  A
Ni131       O134   1.931   1_455  S
Ni131       O136   1.910       .  S
C132        C388   1.440       .  S
C132        O142   1.272   1_655  A
O133       Ni149   1.915   1_545  S
O133        C139   1.272       .  A
O134        C139   1.274       .  A
C135        C278   1.428       .  S
O136        C138   1.267   1_545  A
O137       Ni148   1.932   1_455  S
C138        C306   1.438       .  S
C138        O144   1.270   1_455  A
C139        C446   1.440       .  S
H140        O141   0.966       .  S
O141       Ni149   1.915   1_454  S
O141       Ni143   1.907   1_565  S
O141       Ni148   1.923   1_455  S
O142       Ni143   1.932       .  S
Ni143       O147   1.891       .  S
Ni143       O145   1.914       .  S
O144       Ni149   1.928       .  S
C146        C290   1.428       .  S
C146        O147   1.262   1_556  A
C151        C152   1.400       .  A
C151        C156   1.402       .  A
C151        C348   1.435       .  S
C152        C153   1.397       .  A
C152        H157   1.085       .  S
C153        C154   1.396       .  A
C153        C262   1.433       .  S
C154        C155   1.399       .  A
C154        H158   1.085       .  S
C155        C156   1.401       .  A
C155        C500   1.434       .  S
C156        H159   1.084       .  S
C160        C161   1.401       .  A
C160        C165   1.400       .  A
C160        C248   1.433       .  S
C161        C162   1.401       .  A
C161        H166   1.084       .  S
C162        C163   1.399       .  A
C162        C292   1.433       .  S
C163        C164   1.396       .  A
C163        H167   1.085       .  S
C164        C165   1.396       .  A
C164        C264   1.433       .  S
C165        H168   1.085       .  S
O169       Ni175   1.938       .  S
O169        C190   1.273       .  A
O170       Ni193   1.893       .  S
O170        C179   1.263   1_556  A
O171       Ni175   1.915       .  S
O171       Ni193   1.901       .  S
O171       Ni187   1.909   1_556  S
O171        H194   0.967       .  S
C172        C598   1.437       .  S
C172        O189   1.272       .  A
C172        O181   1.274       .  A
O173       Ni192   1.933       .  S
O173        C179   1.271       .  A
O174       Ni192   1.911       .  S
O174        C176   1.268       .  A
Ni175       O178   1.929       .  S
Ni175       O180   1.916       .  S
C176        C416   1.440       .  S
C176        O186   1.271       .  A
O177       Ni193   1.918       .  S
O177        C183   1.274       .  A
O178        C183   1.275       .  A
C179        C234   1.427       .  S
O180        C182   1.269       .  A
O181       Ni192   1.927       .  S
C182        C320   1.445       .  S
C182        O188   1.272       .  A
C183        C460   1.438       .  S
H184        O185   0.967       .  S
O185       Ni193   1.913   1_554  S
O185       Ni187   1.903       .  S
O185       Ni192   1.917       .  S
O186       Ni187   1.930       .  S
Ni187       O191   1.892       .  S
Ni187       O189   1.916       .  S
O188       Ni193   1.934       .  S
C190        C250   1.429       .  S
C190        O191   1.263   1_556  A
C195        C196   1.399       .  A
C195        C200   1.403       .  A
C195        C514   1.435       .  S
C196        C197   1.395       .  A
C196        H201   1.085       .  S
C197        C198   1.396       .  A
C197        C220   1.433       .  S
C198        C199   1.400       .  A
C198        H202   1.085       .  S
C199        C200   1.403       .  A
C199        C362   1.435       .  S
C200        H203   1.084       .  S
C204        C205   1.400       .  A
C204        C209   1.399       .  A
C204        C276   1.433       .  S
C205        C206   1.401       .  A
C205        H210   1.084       .  S
C206        C207   1.399       .  A
C206        C236   1.432       .  S
C207        C208   1.396       .  A
C207        H211   1.085       .  S
C208        C209   1.396       .  A
C208        C222   1.433       .  S
C209        H212   1.085       .  S
C213        C214   1.400       .  A
C213        C218   1.400       .  A
C213        C221   1.432       .  S
C214        C215   1.395       .  A
C214        H223   1.084       .  S
C215        C216   1.399       .  A
C215        H224   1.084       .  S
C216        C217   1.401       .  A
C216        C219   1.432       .  S
C217        C218   1.397       .  A
C217        H225   1.084       .  S
C218        H226   1.083       .  S
C219        C220   1.202       .  T
C221        C222   1.202       .  T
C227        C228   1.400       .  A
C227        C232   1.400       .  A
C227        C235   1.432       .  S
C228        C229   1.397       .  A
C228        H237   1.084       .  S
C229        C230   1.400       .  A
C229        H238   1.084       .  S
C230        C231   1.400       .  A
C230        C233   1.432       .  S
C231        C232   1.395       .  A
C231        H239   1.084       .  S
C232        H240   1.084       .  S
C233        C234   1.201       .  T
C235        C236   1.201       .  T
C241        C242   1.401       .  A
C241        C246   1.399       .  A
C241        C249   1.434       .  S
C242        C243   1.398       .  A
C242        H251   1.083       .  S
C243        C244   1.400       .  A
C243        H252   1.083       .  S
C244        C245   1.400       .  A
C244        C247   1.434       .  S
C245        C246   1.395       .  A
C245        H253   1.084       .  S
C246        H254   1.084       .  S
C247        C248   1.202       .  T
C249        C250   1.203       .  T
C255        C256   1.400       .  A
C255        C260   1.400       .  A
C255        C263   1.433       .  S
C256        C257   1.396       .  A
C256        H265   1.084       .  S
C257        C258   1.400       .  A
C257        H266   1.084       .  S
C258        C259   1.400       .  A
C258        C261   1.433       .  S
C259        C260   1.396       .  A
C259        H267   1.084       .  S
C260        H268   1.084       .  S
C261        C262   1.202       .  T
C263        C264   1.202       .  T
C269        C270   1.399       .  A
C269        C274   1.401       .  A
C269        C277   1.433       .  S
C270        C271   1.395       .  A
C270        H279   1.084       .  S
C271        C272   1.400       .  A
C271        H280   1.084       .  S
C272        C273   1.400       .  A
C272        C275   1.433       .  S
C273        C274   1.398       .  A
C273        H281   1.083       .  S
C274        H282   1.083       .  S
C275        C276   1.202       .  T
C277        C278   1.202       .  T
C283        C284   1.400       .  A
C283        C288   1.400       .  A
C283        C291   1.433       .  S
C284        C285   1.396       .  A
C284        H293   1.084       .  S
C285        C286   1.400       .  A
C285        H294   1.084       .  S
C286        C287   1.400       .  A
C286        C289   1.433       .  S
C287        C288   1.396       .  A
C287        H295   1.084       .  S
C288        H296   1.084       .  S
C289        C290   1.202       .  T
C291        C292   1.202       .  T
C297        C298   1.402       .  A
C297        C302   1.402       .  A
C297        C305   1.443       .  S
C298        C299   1.401       .  A
C298        H307   1.083       .  S
C299        C300   1.403       .  A
C299        H308   1.083       .  S
C300        C301   1.401       .  A
C300        C303   1.444       .  S
C301        C302   1.400       .  A
C301        H309   1.083       .  S
C302        H310   1.083       .  S
C303        C304   1.208       .  T
C305        C306   1.208       .  T
C311        C312   1.403       .  A
C311        C316   1.403       .  A
C311        C319   1.450       .  S
C312        C313   1.403       .  A
C312        H321   1.083       .  S
C313        C314   1.403       .  A
C313        H322   1.083       .  S
C314        C315   1.404       .  A
C314        C317   1.450       .  S
C315        C316   1.403       .  A
C315        H323   1.083       .  S
C316        H324   1.083       .  S
C317        C318   1.212       .  T
C319        C320   1.212       .  T
C325        C326   1.401       .  A
C325        C330   1.402       .  A
C325        C333   1.441       .  S
C326        C327   1.399       .  A
C326        H335   1.083       .  S
C327        C328   1.401       .  A
C327        H336   1.083       .  S
C328        C329   1.402       .  A
C328        C331   1.441       .  S
C329        C330   1.400       .  A
C329        H337   1.083       .  S
C330        H338   1.083       .  S
C331        C332   1.207       .  T
C333        C334   1.207       .  T
C339        C340   1.400       .  A
C339        C344   1.401       .  A
C339        C347   1.435       .  S
C340        C341   1.397       .  A
C340        H349   1.084       .  S
C341        C342   1.400       .  A
C341        H350   1.084       .  S
C342        C343   1.401       .  A
C342        C345   1.435       .  S
C343        C344   1.398       .  A
C343        H351   1.083       .  S
C344        H352   1.083       .  S
C345        C346   1.203       .  T
C347        C348   1.203       .  T
C353        C354   1.400       .  A
C353        C358   1.401       .  A
C353        C361   1.435       .  S
C354        C355   1.395       .  A
C354        H363   1.084       .  S
C355        C356   1.399       .  A
C355        H364   1.084       .  S
C356        C357   1.401       .  A
C356        C359   1.435       .  S
C357        C358   1.399       .  A
C357        H365   1.083       .  S
C358        H366   1.083       .  S
C359        C360   1.203       .  T
C361        C362   1.203       .  T
C367        C368   1.402       .  A
C367        C372   1.402       .  A
C367        C375   1.445       .  S
C368        C369   1.400       .  A
C368        H377   1.083       .  S
C369        C370   1.401       .  A
C369        H378   1.083       .  S
C370        C371   1.403       .  A
C370        C373   1.446       .  S
C371        C372   1.402       .  A
C371        H379   1.083   1_455  S
C372        H380   1.083       .  S
C373        C374   1.209       .  T
C375        C376   1.209       .  T
C381        C382   1.402       .  A
C381        C386   1.402       .  A
C381        C389   1.445       .  S
C382        C383   1.400       .  A
C382        H391   1.083       .  S
C383        C384   1.402       .  A
C383        H392   1.083       .  S
C384        C385   1.403       .  A
C384        C387   1.445       .  S
C385        C386   1.402       .  A
C385        H393   1.083       .  S
C386        H394   1.083       .  S
C387        C388   1.209       .  T
C389        C390   1.209       .  T
C395        C396   1.402       .  A
C395        C400   1.403       .  A
C395        C403   1.445       .  S
C396        C397   1.401       .  A
C396        H405   1.083       .  S
C397        C398   1.403       .  A
C397        H406   1.083       .  S
C398        C399   1.401       .  A
C398        C401   1.445       .  S
C399        C400   1.401       .  A
C399        H407   1.083       .  S
C400        H408   1.083       .  S
C401        C402   1.209       .  T
C403        C404   1.209       .  T
C409        C410   1.403       .  A
C409        C414   1.402       .  A
C409        C417   1.445       .  S
C410        C411   1.401       .  A
C410        H419   1.083       .  S
C411        C412   1.402       .  A
C411        H420   1.083       .  S
C412        C413   1.403       .  A
C412        C415   1.445       .  S
C413        C414   1.401       .  A
C413        H421   1.083       .  S
C414        H422   1.083       .  S
C415        C416   1.209       .  T
C417        C418   1.209       .  T
C423        C424   1.401       .  A
C423        C428   1.401       .  A
C423        C431   1.439       .  S
C424        C425   1.399       .  A
C424        H433   1.083       .  S
C425        C426   1.401       .  A
C425        H434   1.083       .  S
C426        C427   1.401       .  A
C426        C429   1.439       .  S
C427        C428   1.399       .  A
C427        H435   1.083       .  S
C428        H436   1.083       .  S
C429        C430   1.206       .  T
C431        C432   1.206       .  T
C437        C438   1.403       .  A
C437        C442   1.402       .  A
C437        C445   1.444       .  S
C438        C439   1.401       .  A
C438        H447   1.083       .  S
C439        C440   1.402       .  A
C439        H448   1.083       .  S
C440        C441   1.402       .  A
C440        C443   1.444       .  S
C441        C442   1.400       .  A
C441        H449   1.083       .  S
C442        H450   1.083       .  S
C443        C444   1.209       .  T
C445        C446   1.209       .  T
C451        C452   1.401       .  A
C451        C456   1.402       .  A
C451        C459   1.443       .  S
C452        C453   1.400       .  A
C452        H461   1.083       .  S
C453        C454   1.402       .  A
C453        H462   1.084       .  S
C454        C455   1.401       .  A
C454        C457   1.442       .  S
C455        C456   1.401       .  A
C455        H463   1.083       .  S
C456        H464   1.083       .  S
C457        C458   1.207       .  T
C459        C460   1.208       .  T
C465        C466   1.403       .  A
C465        C470   1.401       .  A
C465        C473   1.442       .  S
C466        C467   1.402       .  A
C466        H475   1.083       .  S
C467        C468   1.402       .  A
C467        H476   1.083       .  S
C468        C469   1.401       .  A
C468        C471   1.442       .  S
C469        C470   1.398       .  A
C469        H477   1.084       .  S
C470        H478   1.084       .  S
C471        C472   1.208       .  T
C473        C474   1.208       .  T
C479        C480   1.401       .  A
C479        C484   1.401       .  A
C479        C487   1.439       .  S
C480        C481   1.399       .  A
C480        H489   1.083       .  S
C481        C482   1.401       .  A
C481        H490   1.083       .  S
C482        C483   1.401       .  A
C482        C485   1.438       .  S
C483        C484   1.398       .  A
C483        H491   1.083       .  S
C484        H492   1.083       .  S
C485        C486   1.205       .  T
C487        C488   1.205       .  T
C493        C494   1.400       .  A
C493        C498   1.400       .  A
C493        C501   1.435       .  S
C494        C495   1.397       .  A
C494        H503   1.083       .  S
C495        C496   1.401       .  A
C495        H504   1.083       .  S
C496        C497   1.400       .  A
C496        C499   1.434       .  S
C497        C498   1.396       .  A
C497        H505   1.084       .  S
C498        H506   1.084       .  S
C499        C500   1.202       .  T
C501        C502   1.203       .  T
C507        C508   1.401       .  A
C507        C512   1.400       .  A
C507        C515   1.436       .  S
C508        C509   1.399       .  A
C508        H517   1.083       .  S
C509        C510   1.401       .  A
C509        H518   1.083       .  S
C510        C511   1.400       .  A
C510        C513   1.435       .  S
C511        C512   1.396       .  A
C511        H519   1.084       .  S
C512        H520   1.084       .  S
C513        C514   1.203       .  T
C515        C516   1.204       .  T
C521        C522   1.403       .  A
C521        C526   1.401       .  A
C521        C529   1.445       .  S
C522        C523   1.403       .  A
C522        H531   1.083       .  S
C523        C524   1.403       .  A
C523        H532   1.083       .  S
C524        C525   1.402       .  A
C524        C527   1.445       .  S
C525        C526   1.400       .  A
C525        H533   1.083       .  S
C526        H534   1.083       .  S
C527        C528   1.209       .  T
C529        C530   1.209       .  T
C535        C536   1.402       .  A
C535        C540   1.403       .  A
C535        C543   1.448       .  S
C536        C537   1.402       .  A
C536        H545   1.083       .  S
C537        C538   1.403       .  A
C537        H546   1.083       .  S
C538        C539   1.402       .  A
C538        C541   1.448       .  S
C539        C540   1.402       .  A
C539        H547   1.083       .  S
C540        H548   1.083       .  S
C541        C542   1.211       .  T
C543        C544   1.211       .  T
C549        C550   1.402       .  A
C549        C554   1.402       .  A
C549        C557   1.443       .  S
C550        C551   1.400       .  A
C550        H559   1.083       .  S
C551        C552   1.402       .  A
C551        H560   1.083       .  S
C552        C553   1.402       .  A
C552        C555   1.443       .  S
C553        C554   1.401       .  A
C553        H561   1.083       .  S
C554        H562   1.083       .  S
C555        C556   1.208       .  T
C557        C558   1.208       .  T
C563        C564   1.402       .  A
C563        C568   1.402       .  A
C563        C571   1.444       .  S
C564        C565   1.400       .  A
C564        H573   1.083       .  S
C565        C566   1.401       .  A
C565        H574   1.083       .  S
C566        C567   1.403       .  A
C566        C569   1.445       .  S
C567        C568   1.401       .  A
C567        H575   1.083   1_565  S
C568        H576   1.083       .  S
C569        C570   1.209       .  T
C571        C572   1.209       .  T
C577        C578   1.402       .  A
C577        C582   1.402       .  A
C577        C585   1.443       .  S
C578        C579   1.399       .  A
C578        H587   1.084       .  S
C579        C580   1.401       .  A
C579        H588   1.084       .  S
C580        C581   1.403   1_565  A
C580        C583   1.444       .  S
C581        C582   1.402   1_545  A
C581        H589   1.083       .  S
C582        H590   1.083   1_565  S
C583        C584   1.208       .  T
C585        C586   1.208       .  T
C591        C592   1.402       .  A
C591        C596   1.401       .  A
C591        C599   1.441       .  S
C592        C593   1.400       .  A
C592        H601   1.083       .  S
C593        C594   1.401       .  A
C593        H602   1.083       .  S
C594        C595   1.402       .  A
C594        C597   1.442       .  S
C595        C596   1.400       .  A
C595        H603   1.083       .  S
C596        H604   1.083       .  S
C597        C598   1.207       .  T
C599        C600   1.207       .  T
C605        C606   1.402       .  A
C605        C610   1.402       .  A
C605        C613   1.443       .  S
C606        C607   1.401       .  A
C606        H615   1.083       .  S
C607        C608   1.402       .  A
C607        H616   1.083       .  S
C608        C609   1.401       .  A
C608        C611   1.443       .  S
C609        C610   1.400       .  A
C609        H617   1.083       .  S
C610        H618   1.083       .  S
C611        C612   1.208       .  T
C613        C614   1.208       .  T
C619        C620   1.401       .  A
C619        C624   1.401       .  A
C619        C627   1.439       .  S
C620        C621   1.399       .  A
C620        H629   1.083       .  S
C621        C622   1.401       .  A
C621        H630   1.083       .  S
C622        C623   1.401       .  A
C622        C625   1.439       .  S
C623        C624   1.399       .  A
C623        H631   1.083       .  S
C624        H632   1.083       .  S
C625        C626   1.206       .  T
C627        C628   1.206       .  T
