geometry optimzed in LAMMPS
_audit_creation_date              2020-11-30 
_audit_creation_method            'lammps2cif' 
_symmetry_space_group_name_H-M    'P1' 
_symmetry_Int_Tables_number       1 
_symmetry_cell_setting            triclinic 
loop_ 
_symmetry_equiv_pos_as_xyz 
  x,y,z 
_cell_length_a                    43.37609072901839 
_cell_length_b                    43.3917803971465 
_cell_length_c                    43.27250915527626 
_cell_angle_alpha                 89.88734874383616 
_cell_angle_beta                  89.42609793685382 
_cell_angle_gamma                 90.2874335547939 
loop_ 
_atom_site_label 
_atom_site_type_symbol 
_atom_site_fract_x 
_atom_site_fract_y 
_atom_site_fract_z 
_atom_site_charge 
C1          C  0.59653538  0.37517970  0.49690143     0.42450
N2          N  0.56878247  0.33713864  0.51183443     0.01340
C3          C  0.47404333  0.25053761  0.41744352    -0.06530
H4          H  0.45313247  0.36415443  0.41589335     0.06830
C5          C  0.42566660  0.36220947  0.52891732    -0.06890
Co6        Co  0.54289896  0.30187343  0.45892344     0.74180
N7          N  0.48743095  0.33547276  0.43739524    -0.26060
Co8        Co  0.46300952  0.30301139  0.46367265     0.74070
C9          C  0.41376031  0.37643067  0.50099482     0.42550
N10         N  0.49258311  0.33936639  0.56409964     0.00960
N11         N  0.44138901  0.33784156  0.48825493     0.01060
N12         N  0.52558856  0.25244800  0.41186917    -0.46910
H13         H  0.58881433  0.36410171  0.44556504     0.06820
N14         N  0.51780752  0.33509231  0.43561131     0.01350
N15         N  0.43845915  0.27117357  0.49090134     0.01090
C16         C  0.39932652  0.24460173  0.50769293     0.42690
N17         N  0.52292780  0.33905644  0.56257077    -0.25520
C18         C  0.59093527  0.25088893  0.47398923    -0.06440
N19         N  0.58595081  0.36014156  0.52212395    -0.46630
N20         N  0.41366854  0.25573706  0.48202683    -0.46850
C21         C  0.60726427  0.24074905  0.50200981     0.42470
N22         N  0.51640794  0.26837460  0.43638355     0.01340
N23         N  0.52217832  0.27246484  0.56588893    -0.25540
N24         N  0.56777293  0.33606099  0.48140809    -0.26030
N25         N  0.49184450  0.27275392  0.56800783     0.00980
H26         H  0.55736398  0.25334122  0.59447334     0.06870
H27         H  0.41284575  0.25406092  0.55817315     0.06900
N28         N  0.48606188  0.26864411  0.43920348    -0.26080
N29         N  0.44259540  0.33851236  0.51867748    -0.25700
N30         N  0.56897764  0.27023172  0.51435914     0.01340
C31         C  0.50481602  0.37256919  0.40649714     0.42740
C32         C  0.53390288  0.36257552  0.57924876    -0.06950
N33         N  0.44081415  0.27186571  0.52124206    -0.25690
H34         H  0.42167938  0.36823418  0.55286112     0.06890
N35         N  0.52920246  0.35683221  0.41717938    -0.46920
H36         H  0.55796357  0.36776505  0.58314764     0.06870
C37         C  0.50621089  0.24529156  0.60703082     0.42570
C38         C  0.58486183  0.35925881  0.46981130    -0.06440
Co39       Co  0.54604756  0.30449932  0.53884853     0.73820
N40         N  0.48167839  0.36203020  0.58131804    -0.46630
C41         C  0.50019995  0.24041112  0.39835509     0.42840
N42         N  0.59187911  0.25392080  0.52574318    -0.46620
Co43       Co  0.46675024  0.30534821  0.54329705     0.73890
C44         C  0.41822207  0.25475591  0.53372907    -0.06950
C45         C  0.47705816  0.35845490  0.41959466    -0.06510
N46         N  0.56820550  0.26936645  0.48390832    -0.26040
N47         N  0.42412772  0.36003820  0.47665505    -0.46800
H48         H  0.44978214  0.24962977  0.41192614     0.06850
C49         C  0.53322578  0.25496608  0.58868548    -0.06930
Cl50       Cl  0.50468061  0.30308607  0.50112180    -0.49930
C51         C  0.50644150  0.37771403  0.59130941     0.42600
H52         H  0.59790766  0.24887027  0.45003382     0.06810
N53         N  0.48155772  0.25742053  0.59254384    -0.46640
C54         C  0.59801197  0.49137568  0.37906436     0.42450
N55         N  0.56933117  0.47703398  0.34208228     0.01340
C56         C  0.47820358  0.57750873  0.25830966    -0.06530
H57         H  0.45393567  0.57634184  0.36870847     0.06830
C58         C  0.42674487  0.46353271  0.36929479    -0.06890
Co59       Co  0.54367128  0.53008054  0.30690047     0.74180
N60         N  0.48824878  0.55343393  0.34055871    -0.26060
Co61       Co  0.46417630  0.52767353  0.30823945     0.74070
C62         C  0.41464035  0.49171488  0.38277499     0.42550
N63         N  0.49290980  0.42619393  0.34594057     0.00960
N64         N  0.44215635  0.50347636  0.34343958     0.01060
N65         N  0.52983581  0.57596313  0.25700744    -0.46910
H66         H  0.59038231  0.54276204  0.36828401     0.06820
N67         N  0.51864286  0.55418601  0.34026447     0.01350
N68         N  0.44009036  0.50013502  0.27650578     0.01090
C69         C  0.40036130  0.48313018  0.25119025     0.42690
N70         N  0.52327911  0.42684736  0.34480951    -0.25520
C71         C  0.59118825  0.51636182  0.25586972    -0.06440
N72         N  0.58701322  0.46643689  0.36436843    -0.46630
N73         N  0.41571838  0.50884607  0.26054363    -0.46850
C74         C  0.60936181  0.48946140  0.24665947     0.42470
N75         N  0.51840327  0.55243990  0.27285613     0.01340
N76         N  0.52234719  0.42420096  0.27804900    -0.25540
N77         N  0.56830415  0.50739073  0.34110956    -0.26030
N78         N  0.49198320  0.42241120  0.27922165     0.00980
H79         H  0.55703101  0.39440009  0.25934788     0.06870
H80         H  0.41257223  0.43321789  0.26526483     0.06900
N81         N  0.48798752  0.55276419  0.27414152    -0.26080
N82         N  0.44360612  0.47315704  0.34506211    -0.25700
N83         N  0.57059507  0.47512913  0.27528790     0.01340
C84         C  0.50565867  0.58419223  0.37726186     0.42740
C85         C  0.53409378  0.40890047  0.36750912    -0.06950
N86         N  0.44151098  0.46987491  0.27885477    -0.25690
H87         H  0.42276136  0.43980513  0.37598523     0.06890
N88         N  0.53007645  0.57252019  0.36179944    -0.46920
H89         H  0.55809991  0.40395284  0.37173699     0.06870
C90         C  0.50581042  0.38246276  0.25279911     0.42570
C91         C  0.58595735  0.51865038  0.36373800    -0.06440
Co92       Co  0.54670982  0.45060193  0.30974634     0.73820
N93         N  0.48189629  0.40825258  0.36826856    -0.46630
C94         C  0.50625601  0.59359033  0.24755953     0.42840
N95         N  0.59491838  0.46486258  0.25973350    -0.46620
Co96       Co  0.46728962  0.44769899  0.31210770     0.73890
C97         C  0.41815994  0.45728054  0.26343463    -0.06950
C98         C  0.47786381  0.57180771  0.36322277    -0.06510
N99         N  0.56872563  0.50542533  0.27426098    -0.26040
N100        N  0.42479959  0.51559147  0.36555157    -0.46800
H101        H  0.45494999  0.58636232  0.25935007     0.06850
C102        C  0.53301564  0.40087639  0.26093855    -0.06930
Cl103      Cl  0.50546239  0.48901701  0.30886047    -0.49930
C104        C  0.50654679  0.39682066  0.38299581     0.42600
H105        H  0.59721131  0.54049979  0.25375164     0.06810
N106        N  0.48138755  0.39756226  0.26503520    -0.46640
C107        C  0.50757588  0.60776962  0.40132766     0.42450
N108        N  0.49466757  0.64485802  0.43116613     0.01340
C109        C  0.59604535  0.72804456  0.52179459    -0.06530
H110        H  0.59157109  0.61712946  0.54670982     0.06830
C111        C  0.47950000  0.62316325  0.57715039    -0.06890
Co112      Co  0.54909429  0.67846423  0.45567108     0.74180
N113        N  0.57002066  0.64532042  0.51195988    -0.26060
Co114      Co  0.54618934  0.67916285  0.53582491     0.74070
C115        C  0.50707680  0.60860363  0.58927722     0.42550
N116        N  0.44389838  0.64579955  0.50931287     0.00960
N117        N  0.52058623  0.64580364  0.55952598     0.01060
N118        N  0.59707134  0.72764306  0.46986347    -0.46910
H119        H  0.55932000  0.61702992  0.40840412     0.06820
N120        N  0.57109967  0.64507441  0.48148758     0.01350
N121        N  0.52106450  0.71297517  0.55939720     0.01090
C122        C  0.50826718  0.74048108  0.59945244     0.42690
N123        N  0.44504797  0.64565392  0.47884103    -0.25520
C124        C  0.53604740  0.72690204  0.40474887    -0.06440
N125        N  0.48319581  0.62316245  0.41304103    -0.46630
N126        N  0.53216921  0.72937694  0.58247223    -0.46850
C127        C  0.50839168  0.73836588  0.38911815     0.42470
N128        N  0.57307431  0.71192277  0.48073524     0.01340
N129        N  0.44534342  0.71240331  0.47797577    -0.25540
N130        N  0.52504574  0.64478952  0.43168054    -0.26030
N131        N  0.44252292  0.71230427  0.50836339     0.00980
H132        H  0.41794250  0.73093641  0.44167176     0.06870
H133        H  0.45676701  0.72882580  0.59125796     0.06900
N134        N  0.57224854  0.71149420  0.51124345    -0.26080
N135        N  0.49019568  0.64593002  0.55893551    -0.25700
N136        N  0.49535109  0.71202115  0.42983120     0.01340
C137        C  0.59917736  0.60736714  0.49495715     0.42740
C138        C  0.42712729  0.62268722  0.46858890    -0.06950
N139        N  0.49066879  0.71223015  0.55970100    -0.25690
H140        H  0.45549108  0.61810850  0.58199669     0.06890
N141        N  0.58854271  0.62275887  0.47028688    -0.46920
H142        H  0.42266503  0.61734122  0.44463941     0.06870
C143        C  0.40394624  0.73925944  0.49216128     0.42570
C144        C  0.53539758  0.62205505  0.41344439    -0.06440
Co145      Co  0.46991745  0.67894399  0.45426014     0.73820
N146        N  0.42576748  0.62401015  0.52093255    -0.46630
C147        C  0.61281949  0.73891000  0.49428031     0.42840
N148        N  0.48432059  0.72790778  0.40635467    -0.46620
Co149      Co  0.46645182  0.67936403  0.53433033     0.73890
C150        C  0.48048108  0.72893284  0.58375653    -0.06950
C151        C  0.58725477  0.62221348  0.52266389    -0.06510
N152        N  0.52571119  0.71096883  0.42939556    -0.26040
N153        N  0.53169670  0.62393423  0.57764597    -0.46800
H154        H  0.60347406  0.72797489  0.54555903     0.06850
C155        C  0.42337749  0.73005578  0.46600684    -0.06930
Cl156      Cl  0.50791814  0.67935181  0.49501758    -0.49930
C157        C  0.41468173  0.60843972  0.49658327     0.42600
H158        H  0.55953236  0.72614866  0.39624782     0.06810
N159        N  0.41753990  0.72736335  0.51762201    -0.46640
C160        C  0.61912842  0.40015159  0.49766840     0.42450
N161        N  0.65727867  0.42830658  0.48360044     0.01340
C162        C  0.74219026  0.52214888  0.57994669    -0.06530
H163        H  0.63287693  0.54622041  0.58051537     0.06830
C164        C  0.63707898  0.57140031  0.46549186    -0.06890
Co165      Co  0.69111765  0.45373888  0.53753417     0.74180
N166        N  0.65942843  0.51064856  0.55776215    -0.26060
Co167      Co  0.69376033  0.53301118  0.53170947     0.74070
C168        C  0.62277237  0.58380555  0.49329925     0.42550
N169        N  0.65936488  0.50369817  0.43073216     0.00960
N170        N  0.66043427  0.55556287  0.50642008     0.01060
N171        N  0.73602396  0.47142592  0.58866254    -0.46910
H172        H  0.62826075  0.40884474  0.54921573     0.06820
N173        N  0.65834097  0.48032665  0.55938656     0.01350
N174        N  0.72762140  0.55554625  0.50526864     0.01090
C175        C  0.75293087  0.59649430  0.49099982     0.42690
N176        N  0.65895019  0.47339491  0.43263493    -0.25520
C177        C  0.73785082  0.40130020  0.52473746    -0.06440
N178        N  0.63506517  0.41041739  0.47279316    -0.46630
N179        N  0.74334773  0.57948214  0.51556611    -0.46850
C180        C  0.74709430  0.38370138  0.49728093     0.42470
N181        N  0.72427203  0.47935185  0.56163464     0.01340
N182        N  0.72580272  0.47240097  0.43195841    -0.25540
N183        N  0.65706145  0.42992757  0.51402229    -0.26030
N184        N  0.72597468  0.50265035  0.42879437     0.00980
H185        H  0.74467601  0.43586679  0.40469769     0.06870
H186        H  0.74009234  0.58785975  0.44024487     0.06900
N187        N  0.72612890  0.50937484  0.55719066    -0.26080
N188        N  0.66017514  0.55408968  0.47601132    -0.25700
N189        N  0.72422794  0.42557106  0.48349374     0.01340
C190        C  0.62198950  0.49489772  0.58940371     0.42740
C191        C  0.63574055  0.46262661  0.41549233    -0.06950
N192        N  0.72624450  0.55528526  0.47485420    -0.25690
H193        H  0.63155775  0.57530969  0.44148811     0.06890
N194        N  0.63646361  0.46992677  0.57820131    -0.46920
H195        H  0.63005876  0.43861609  0.41186028     0.06870
C196        C  0.75348377  0.48614190  0.39032504     0.42570
C197        C  0.63356833  0.41290678  0.52506997    -0.06440
Co198      Co  0.69186856  0.44965553  0.45772208     0.73820
N199        N  0.63751391  0.51475631  0.41278750    -0.46630
C200        C  0.74708517  0.49737149  0.60230321     0.42840
N201        N  0.73802411  0.40057257  0.47284832    -0.46620
Co202      Co  0.69319476  0.52914204  0.45222450     0.73890
C203        C  0.74171227  0.57987465  0.46379491    -0.06950
C204        C  0.63714850  0.52207210  0.57616735    -0.06510
N205        N  0.72336484  0.42638706  0.51402563    -0.26040
N206        N  0.63845201  0.57335136  0.51781465    -0.46800
H207        H  0.74443810  0.54661452  0.58236901     0.06850
C208        C  0.74375519  0.46020982  0.40997660    -0.06930
Cl209      Cl  0.69316478  0.49132252  0.49483041    -0.49930
C210        C  0.62162145  0.49013906  0.40267704     0.42600
H211        H  0.73660789  0.39331382  0.54841319     0.06810
N212        N  0.74163374  0.51161223  0.40389798    -0.46640
C213        C  0.41343567  0.49448691  0.61532544     0.42450
N214        N  0.44242868  0.48119385  0.65260437     0.01340
C215        C  0.53482043  0.57970437  0.73719706    -0.06530
H216        H  0.55979192  0.57647064  0.62296351     0.06830
C217        C  0.58632076  0.46571004  0.62853609    -0.06890
Co218      Co  0.46793163  0.53545987  0.68574359     0.74180
N219        N  0.52458347  0.55574009  0.65216657    -0.26060
Co220      Co  0.54788828  0.53134921  0.68660745     0.74070
C221        C  0.59886994  0.49347650  0.61411677     0.42550
N222        N  0.51871815  0.43013173  0.65217397     0.00960
N223        N  0.57070455  0.50641006  0.65259879     0.01060
N224        N  0.48387858  0.58619452  0.73126827    -0.46910
H225        H  0.42156901  0.54610063  0.62440401     0.06820
N226        N  0.49421427  0.55723581  0.65196545     0.01350
N227        N  0.57169903  0.50518492  0.71968485     0.01090
C228        C  0.61230548  0.48942402  0.74436946     0.42690
N229        N  0.48837357  0.43136791  0.65259984    -0.25520
C230        C  0.41629698  0.52191768  0.73416582    -0.06440
N231        N  0.42436988  0.46996024  0.63082245    -0.46630
N232        N  0.59657845  0.51462054  0.73456264    -0.46850
C233        C  0.39952359  0.49412485  0.74423436     0.42470
N234        N  0.49320181  0.55998848  0.71855467     0.01340
N235        N  0.48809913  0.43043419  0.71956258    -0.25540
N236        N  0.44365200  0.51154272  0.65241801    -0.26030
N237        N  0.51836909  0.42772493  0.71891948     0.00980
H238        H  0.45192251  0.40252524  0.73888882     0.06870
H239        H  0.59992553  0.43901886  0.73216226     0.06900
N240        N  0.52342989  0.55673584  0.72004107    -0.26080
N241        N  0.56908669  0.47606962  0.65212648    -0.25700
N242        N  0.44115383  0.48132210  0.71981647     0.01340
C243        C  0.50839446  0.58502197  0.61348270     0.42740
C244        C  0.47755359  0.41395976  0.62956910    -0.06950
N245        N  0.57019982  0.47485559  0.71846601    -0.25690
H246        H  0.59012512  0.44179016  0.62272328     0.06890
N247        N  0.48357286  0.57470080  0.62938603    -0.46920
H248        H  0.45352215  0.40973889  0.62456920     0.06870
C249        C  0.50239638  0.38894656  0.74643778     0.42570
C250        C  0.42593832  0.52213074  0.62957846    -0.06440
Co251      Co  0.46480154  0.45592298  0.68644692     0.73820
N252        N  0.52976057  0.41236430  0.62993644    -0.46630
C253        C  0.50892014  0.60067643  0.74287468     0.42840
N254        N  0.41685917  0.47018014  0.73483062    -0.46620
Co255      Co  0.54424389  0.45192154  0.68567314     0.73890
C256        C  0.59410417  0.46299579  0.73360052    -0.06950
C257        C  0.53569748  0.57254901  0.62837551    -0.06510
N258        N  0.44127569  0.51175672  0.71876036    -0.26040
N259        N  0.58850759  0.51786406  0.63028694    -0.46800
H260        H  0.55909015  0.58464217  0.73958503     0.06850
C261        C  0.47622485  0.40814943  0.73745644    -0.06930
Cl262      Cl  0.50623690  0.49368334  0.68662113    -0.49930
C263        C  0.50508948  0.40172267  0.61463383     0.42600
H264        H  0.40791022  0.54533458  0.73330451     0.06810
N265        N  0.52766964  0.40284967  0.73398579    -0.46640
C266        C  0.39072421  0.40075975  0.49918573     0.42450
N267        N  0.35303088  0.42942518  0.51250124     0.01340
C268        C  0.26921855  0.52139636  0.41273632    -0.06530
H269        H  0.38103577  0.54546648  0.41358597     0.06830
C270        C  0.37572674  0.57321007  0.52669701    -0.06890
Co271      Co  0.31987238  0.45482694  0.45790851     0.74180
N272        N  0.35290194  0.51075726  0.43627500    -0.26060
Co273      Co  0.31890953  0.53427704  0.46089728     0.74070
C274        C  0.39044934  0.58519745  0.49871699     0.42550
N275        N  0.35197089  0.50596159  0.56321469     0.00960
N276        N  0.35242458  0.55691702  0.48592598     0.01060
N277        N  0.27455113  0.47016405  0.40726116    -0.46910
H278        H  0.38194344  0.40872551  0.44741228     0.06820
N279        N  0.35344787  0.48040674  0.43575230     0.01350
N280        N  0.28578981  0.55834980  0.48627022     0.01090
C281        C  0.25977483  0.59841395  0.50057908     0.42690
N282        N  0.35201569  0.47559183  0.56231469    -0.25520
C283        C  0.26985368  0.40608087  0.46967888    -0.06440
N284        N  0.37489886  0.41159197  0.52374480    -0.46630
N285        N  0.27104470  0.58287375  0.47590945    -0.46850
C286        C  0.26138024  0.38662915  0.49600840     0.42470
N287        N  0.28736803  0.47986242  0.43314466     0.01340
N288        N  0.28582564  0.47512272  0.56388066    -0.25540
N289        N  0.35332596  0.43062306  0.48205390    -0.26030
N290        N  0.28473978  0.50552748  0.56354775     0.00980
H291        H  0.26999343  0.44155872  0.59677397     0.06870
H292        H  0.26870746  0.58752169  0.55180693     0.06900
N293        N  0.28604356  0.51009899  0.43581542    -0.26080
N294        N  0.35240061  0.55581823  0.51637400    -0.25700
N295        N  0.28649111  0.42669576  0.51193928     0.01340
C296        C  0.39107730  0.49384075  0.40675888     0.42740
C297        C  0.37495003  0.46512600  0.57991248    -0.06950
N298        N  0.28588935  0.55711435  0.51671309    -0.25690
H299        H  0.38115777  0.57745351  0.55065839     0.06890
N300        N  0.37578150  0.46927327  0.41815480    -0.46920
H301        H  0.38022982  0.44118442  0.58427078     0.06870
C302        C  0.25744898  0.49274469  0.60382950     0.42570
C303        C  0.37652969  0.41313041  0.47144619    -0.06440
Co304      Co  0.31899170  0.45136037  0.53793665     0.73820
N305        N  0.37397846  0.51730186  0.58094964    -0.46630
C306        C  0.26338714  0.49511132  0.39231202     0.42840
N307        N  0.27226075  0.40119505  0.52136762    -0.46620
Co308      Co  0.31848621  0.53124240  0.54030617     0.73890
C309        C  0.26937949  0.58074116  0.52777656    -0.06950
C310        C  0.37600517  0.52148384  0.41839130    -0.06510
N311        N  0.28654279  0.42915111  0.48149190    -0.26040
N312        N  0.37474678  0.57443187  0.47434156    -0.46800
H313        H  0.26674571  0.54562179  0.40825677     0.06850
C314        C  0.26936588  0.46497810  0.58833437    -0.06930
Cl315      Cl  0.31860089  0.49293296  0.49927752    -0.49930
C316        C  0.38945180  0.49283010  0.59196445     0.42600
H317        H  0.26861338  0.40067225  0.44536947     0.06810
N318        N  0.26817499  0.51664500  0.58668719    -0.46640
C319        C  0.89143105  0.58601448  0.99922589     0.42450
N320        N  0.85317509  0.55864567  0.98511284     0.01340
C321        C  0.76695753  0.46369441  0.08174961    -0.06530
H322        H  0.88001969  0.44104298  0.08121730     0.06830
C323        C  0.87582941  0.41507340  0.96781185    -0.06890
Co324      Co  0.81926934  0.53186972  0.03929486     0.74180
N325        N  0.85220963  0.47608589  0.05971928    -0.26060
Co326      Co  0.81850904  0.45306805  0.03460270     0.74070
C327        C  0.88992003  0.40254358  0.99550097     0.42550
N328        N  0.85293802  0.48324333  0.93277369     0.00960
N329        N  0.85229365  0.43098912  0.00898927     0.01060
N330        N  0.77043404  0.51495876  0.08840506    -0.46910
H331        H  0.88166988  0.57675712  0.05073290     0.06820
N332        N  0.85255410  0.50639177  0.06129059     0.01350
N333        N  0.78516473  0.43021785  0.00910479     0.01090
C334        C  0.75821591  0.39042049  0.99581846     0.42690
N335        N  0.85289162  0.51360054  0.93415926    -0.25520
C336        C  0.77117879  0.58025798  0.02896052    -0.06440
N337        N  0.87582531  0.57625358  0.97431472    -0.46630
N338        N  0.76869333  0.40690975  0.02003931    -0.46850
C339        C  0.76220055  0.60079810  0.00364581     0.42470
N340        N  0.78593349  0.50609979  0.06341846     0.01340
N341        N  0.78664470  0.51327082  0.93310264    -0.25540
N342        N  0.85297163  0.55663306  0.01553750    -0.26030
N343        N  0.78585519  0.48282349  0.93275655     0.00980
H344        H  0.76985370  0.54726114  0.90135736     0.06870
H345        H  0.77078810  0.39856661  0.94455315     0.06900
N346        N  0.78533289  0.47598035  0.06012526    -0.26080
N347        N  0.85271712  0.43249842  0.97856788    -0.25700
N348        N  0.78660573  0.56078090  0.98572955     0.01340
C349        C  0.88971018  0.49252300  0.08988815     0.42740
C350        C  0.87605718  0.52463049  0.91659656    -0.06950
N351        N  0.78642432  0.43048895  0.97869069    -0.25690
H352        H  0.88132681  0.41094448  0.94374420     0.06890
N353        N  0.87448978  0.51727478  0.07933812    -0.46920
H354        H  0.88135369  0.54869824  0.91258098     0.06870
C355        C  0.75843632  0.49598330  0.89349657     0.42570
C356        C  0.87637136  0.57337942  0.02660362    -0.06440
Co357      Co  0.81948549  0.53702524  0.95915141     0.73820
N358        N  0.87519542  0.47246230  0.91475218    -0.46630
C359        C  0.75776520  0.48946053  0.10170440     0.42840
N360        N  0.77264217  0.58666802  0.97753269    -0.46620
Co361      Co  0.81928307  0.45707771  0.95529489     0.73890
C362        C  0.76998759  0.40648051  0.96817494    -0.06950
C363        C  0.87500923  0.46510496  0.07720929    -0.06510
N364        N  0.78674967  0.55739478  0.01599338    -0.26040
N365        N  0.87409690  0.41307202  0.02015304    -0.46800
H366        H  0.76487237  0.43918291  0.08568545     0.06850
C367        C  0.76988474  0.52363887  0.90935573    -0.06930
Cl368      Cl  0.81878617  0.49477166  0.99706698    -0.49930
C369        C  0.89075743  0.49727808  0.90404685     0.42600
H370        H  0.77175633  0.58359836  0.05341376     0.06810
N371        N  0.76945028  0.47186028  0.90968145    -0.46640
C372        C  0.00617743  0.40223217  0.87942994     0.42450
N373        N  0.99343576  0.43203864  0.84235446     0.01340
C374        C  0.09635936  0.52333730  0.75783611    -0.06530
H375        H  0.09396842  0.54717568  0.86986044     0.06830
C376        C  0.98126317  0.57590426  0.86658412    -0.06890
Co377      Co  0.04810979  0.45763979  0.80811935     0.74180
N378        N  0.07117871  0.51301092  0.84177993    -0.26060
Co379      Co  0.04734615  0.53761490  0.80869005     0.74070
C380        C  0.00892827  0.58775309  0.88131934     0.42550
N381        N  0.94433235  0.50952617  0.84294847     0.00960
N382        N  0.02222357  0.55990504  0.84288652     0.01060
N383        N  0.09490852  0.47155172  0.75772579    -0.46910
H384        H  0.05798142  0.40993334  0.86982942     0.06820
N385        N  0.07139303  0.48262144  0.84181483     0.01350
N386        N  0.02222822  0.56285290  0.77614905     0.01090
C387        C  0.00692362  0.60271976  0.75005661     0.42690
N388        N  0.94470335  0.47915294  0.84262314    -0.25520
C389        C  0.03534827  0.40931785  0.75801620    -0.06440
N390        N  0.98190108  0.41375020  0.86415304    -0.46630
N391        N  0.03192427  0.58818861  0.76168441    -0.46850
C392        C  0.00881677  0.38970612  0.75072075     0.42470
N393        N  0.07204907  0.48296545  0.77450086     0.01340
N394        N  0.94296114  0.47982886  0.77628664    -0.25540
N395        N  0.02384115  0.43295790  0.84213861    -0.26030
N396        N  0.94361172  0.51027499  0.77580160     0.00980
H397        H  0.90916908  0.44711087  0.76093682     0.06870
H398        H  0.95612358  0.58819690  0.75756726     0.06900
N399        N  0.07252628  0.51340128  0.77524600    -0.26080
N400        N  0.99183131  0.55882767  0.84302439    -0.25700
N401        N  0.99363264  0.43021230  0.77578674     0.01340
C402        C  0.10056199  0.49545669  0.87923320     0.42740
C403        C  0.92670167  0.46846621  0.86556409    -0.06950
N404        N  0.99191734  0.56041930  0.77599655    -0.25690
H405        H  0.95728705  0.58006891  0.87216707     0.06890
N406        N  0.08894054  0.47110078  0.86383370    -0.46920
H407        H  0.92174596  0.44448291  0.87044436     0.06870
C408        C  0.90271903  0.49856499  0.74998465     0.42570
C409        C  0.03408448  0.41473982  0.86491239    -0.06440
Co410      Co  0.96846623  0.45506454  0.80890013     0.73820
N411        N  0.92642741  0.52068284  0.86517699    -0.46630
C412        C  0.11151921  0.49541479  0.74614132     0.42840
N413        N  0.98382238  0.40469914  0.76209828    -0.46620
Co414      Co  0.96771940  0.53488743  0.80917944     0.73890
C415        C  0.98045210  0.58319017  0.75886704    -0.06950
C416        C  0.08906611  0.52328785  0.86467286    -0.06510
N417        N  0.02399317  0.43243355  0.77504590    -0.26040
N418        N  0.03348580  0.57717979  0.86534671    -0.46800
H419        H  0.10487524  0.54679687  0.75753308     0.06850
C420        C  0.91819768  0.47037391  0.76038848    -0.06930
Cl421      Cl  0.00791082  0.49628694  0.80828102    -0.49930
C422        C  0.91487965  0.49601987  0.88043151     0.42600
H423        H  0.05954869  0.40434338  0.75570586     0.06810
N424        N  0.92008327  0.52206702  0.76070183    -0.46640
C425        C  0.11899401  0.40027735  0.99632584     0.42450
N426        N  0.15740885  0.42824540  0.98297345     0.01340
C427        C  0.24272555  0.51575606  0.08581879    -0.06530
H428        H  0.13264509  0.54311866  0.08293071     0.06830
C429        C  0.13998630  0.57329066  0.96979751    -0.06890
Co430      Co  0.19198667  0.45195098  0.03748690     0.74180
N431        N  0.15976262  0.50813299  0.06008929    -0.26060
Co432      Co  0.19432009  0.53116638  0.03618769     0.74070
C433        C  0.12544175  0.58556539  0.99761513     0.42550
N434        N  0.16116966  0.50549829  0.93286555     0.00960
N435        N  0.16180888  0.55534454  0.01078131     0.01060
N436        N  0.24181503  0.46398548  0.08461515    -0.46910
H437        H  0.12832266  0.40742222  0.04809178     0.06820
N438        N  0.15890856  0.47778557  0.06073063     0.01350
N439        N  0.22896407  0.55389486  0.01138329     0.01090
C440        C  0.25787754  0.59289154  0.99908938     0.42690
N441        N  0.16008514  0.47512792  0.93362557    -0.25520
C442        C  0.24044733  0.40234944  0.02481430    -0.06440
N443        N  0.13497479  0.41098297  0.97172182    -0.46630
N444        N  0.24591965  0.57638904  0.02292282    -0.46850
C445        C  0.24623016  0.38178183  0.99865981     0.42470
N446        N  0.22594583  0.47574741  0.06152004     0.01340
N447        N  0.22614805  0.47294839  0.93235862    -0.25540
N448        N  0.15739083  0.42906209  0.01342785    -0.26030
N449        N  0.22840508  0.50332699  0.93295290     0.00980
H450        H  0.23973313  0.43943594  0.89880287     0.06870
H451        H  0.24698380  0.58636351  0.94753431     0.06900
N452        N  0.22590260  0.50611988  0.06187286    -0.26080
N453        N  0.16221493  0.55476019  0.98030953    -0.25700
N454        N  0.22346677  0.42320565  0.98291704     0.01340
C455        C  0.12168830  0.49164468  0.09004288     0.42740
C456        C  0.13718171  0.46529702  0.91557332    -0.06950
N457        N  0.22861330  0.55433395  0.98090790    -0.25690
H458        H  0.13527859  0.57818659  0.94579157     0.06890
N459        N  0.13648497  0.46686473  0.07863317    -0.46920
H460        H  0.13137850  0.44150434  0.91087521     0.06870
C461        C  0.25413110  0.49011125  0.89190328     0.42570
C462        C  0.13365897  0.41207391  0.02405746    -0.06440
Co463      Co  0.19206306  0.44959507  0.95771202     0.73820
N464        N  0.13988820  0.51743083  0.91469132    -0.46630
C465        C  0.25356783  0.48766066  0.10113706     0.42840
N466        N  0.23557583  0.39678469  0.97344416    -0.46620
Co467      Co  0.19537722  0.52970341  0.95638630     0.73890
C468        C  0.24635034  0.57787778  0.97104224    -0.06950
C469        C  0.13704452  0.51909206  0.07806356    -0.06510
N470        N  0.22440905  0.42588241  0.01326498    -0.26040
N471        N  0.14019746  0.57368261  0.02214234    -0.46800
H472        H  0.24318149  0.53923345  0.09408279     0.06850
C473        C  0.24183632  0.46260160  0.90763397    -0.06930
Cl474      Cl  0.19402061  0.49058483  0.99687418    -0.49930
C475        C  0.12385055  0.49334643  0.90328592     0.42600
H476        H  0.24247047  0.39746830  0.04912918     0.06810
N477        N  0.24490040  0.51417117  0.90949134    -0.46640
C478        C  0.00790675  0.58387066  0.11576897     0.42450
N479        N  0.99356795  0.55498005  0.15316993     0.01340
C480        C  0.09312860  0.46016552  0.23342810    -0.06530
H481        H  0.08898601  0.43856484  0.12239547     0.06830
C482        C  0.97617179  0.41290942  0.12587963    -0.06890
Co483      Co  0.04677095  0.52794736  0.18653574     0.74180
N484        N  0.06774093  0.47293437  0.15153491    -0.26060
Co485      Co  0.04259269  0.44879976  0.18439273     0.74070
C486        C  0.00379779  0.40093359  0.11088926     0.42550
N487        N  0.94121937  0.47920168  0.15118007     0.00960
N488        N  0.01707904  0.42809264  0.14970226     0.01060
N489        N  0.09329931  0.51186698  0.23524012    -0.46910
H490        H  0.05927941  0.57517680  0.12512395     0.06820
N491        N  0.06942949  0.50323381  0.15219698     0.01350
N492        N  0.01613777  0.42443926  0.21706639     0.01090
C493        C  0.00136322  0.38256093  0.24018545     0.42690
N494        N  0.94277422  0.50952931  0.15199879    -0.25520
C495        C  0.03477553  0.57523721  0.23784295    -0.06440
N496        N  0.98295512  0.57312899  0.13115370    -0.46630
N497        N  0.02615854  0.39926975  0.23095575    -0.46850
C498        C  0.00815589  0.59363922  0.24779806     0.42470
N499        N  0.06948165  0.50152579  0.21946827     0.01340
N500        N  0.94116379  0.50789726  0.21898448    -0.25540
N501        N  0.02390906  0.55348663  0.15328546    -0.26030
N502        N  0.93818458  0.47762603  0.21763434     0.00980
H503        H  0.91376184  0.54356613  0.23890925     0.06870
H504        H  0.95068917  0.39291923  0.23017653     0.06900
N505        N  0.06889522  0.47116578  0.21784941    -0.26080
N506        N  0.98672939  0.42938289  0.14974148    -0.25700
N507        N  0.99294995  0.55508201  0.22001947     0.01340
C508        C  0.09803112  0.49019095  0.11410086     0.42740
C509        C  0.92562153  0.52085776  0.12902794    -0.06950
N510        N  0.98568942  0.42546888  0.21637476    -0.25690
H511        H  0.95219390  0.40886841  0.12051214     0.06890
N512        N  0.08761251  0.51463692  0.13019947    -0.46920
H513        H  0.92167646  0.54499056  0.12427883     0.06870
C514        C  0.89775726  0.49305733  0.24286929     0.42570
C515        C  0.03515551  0.57118938  0.13036641    -0.06440
Co516      Co  0.96741089  0.53218008  0.18638416     0.73820
N517        N  0.92354611  0.46869569  0.12878477    -0.46630
C518        C  0.10975872  0.48735998  0.24492429     0.42840
N519        N  0.98322793  0.57933578  0.23575809    -0.46620
Co520      Co  0.96266168  0.45264979  0.18410137     0.73410
C521        C  0.97442693  0.40057904  0.23119323    -0.06950
C522        C  0.08519164  0.46249401  0.12817851    -0.06510
N523        N  0.02324174  0.55291998  0.22004558    -0.26040
N524        N  0.02829156  0.41113448  0.12684732    -0.46800
H525        H  0.10099198  0.43662030  0.23209490     0.06850
C526        C  0.91811787  0.51932175  0.23618024    -0.06930
Cl527      Cl  0.00480159  0.49034669  0.18613530    -0.49930
C528        C  0.91317065  0.49365077  0.11374584     0.42600
H529        H  0.05905843  0.58070718  0.23916079     0.06810
N530        N  0.91230972  0.46805070  0.23114678    -0.46640
C531        C  0.91296650  0.37840236  0.99701611     0.42450
N532        N  0.94032358  0.34006221  0.98343106     0.01340
C533        C  0.02961850  0.25494186  0.08437130    -0.06530
H534        H  0.05668601  0.36631952  0.07980815     0.06830
C535        C  0.08356946  0.36163435  0.96697715    -0.06890
Co536      Co  0.96496695  0.30570019  0.03722684     0.74180
N537        N  0.02162928  0.33804313  0.05862500    -0.26060
Co538      Co  0.04483056  0.30427865  0.03369113     0.74070
C539        C  0.09575642  0.37601754  0.99469028     0.42550
N540        N  0.01655502  0.33976395  0.93136072     0.00960
N541        N  0.06757490  0.33778308  0.00802565     0.01060
N542        N  0.97794930  0.25597737  0.08390836    -0.46910
H543        H  0.92039474  0.36877295  0.04874210     0.06820
N544        N  0.99124816  0.33864002  0.05976071     0.01350
N545        N  0.06823645  0.27129373  0.00681781     0.01090
C546        C  0.10685477  0.24443765  0.98941451     0.42690
N547        N  0.98618929  0.33998833  0.93270119    -0.25520
C548        C  0.91390376  0.25759548  0.02472299    -0.06440
N549        N  0.92333167  0.36264706  0.97232381    -0.46630
N550        N  0.09305551  0.25584738  0.01530644    -0.46850
C551        C  0.89713037  0.24703419  0.99742648     0.42470
N552        N  0.98961947  0.27160154  0.06029688     0.01340
N553        N  0.98464192  0.27317083  0.93169718    -0.25540
N554        N  0.94140687  0.33993097  0.01385614    -0.26030
N555        N  0.01488953  0.27314504  0.92888948     0.00980
H556        H  0.94822105  0.25503515  0.90447219     0.06870
H557        H  0.09013065  0.25170859  0.93931739     0.06900
N558        N  0.02008064  0.27162402  0.06003094    -0.26080
N559        N  0.06622862  0.33817716  0.97758207    -0.25700
N560        N  0.93767356  0.27306503  0.98332697     0.01340
C561        C  0.00520587  0.37657982  0.08773558     0.42740
C562        C  0.97602522  0.36335060  0.91522413    -0.06950
N563        N  0.06529010  0.27145708  0.97650335    -0.25690
H564        H  0.08747617  0.36751475  0.94295264     0.06890
N565        N  0.98041851  0.36124798  0.07716534    -0.46920
H566        H  0.95214371  0.36895861  0.91113136     0.06870
C567        C  0.99885370  0.24688771  0.88954854     0.42570
C568        C  0.92457592  0.36342798  0.02466497    -0.06440
Co569      Co  0.96192564  0.30627258  0.95766134     0.73820
N570        N  0.02819345  0.36185291  0.91351852    -0.46630
C571        C  0.00136090  0.24484486  0.10076812     0.42840
N572        N  0.91360196  0.25765228  0.97283821    -0.46620
Co573      Co  0.04100296  0.30535596  0.95334983     0.73890
C574        C  0.08696491  0.25365888  0.96386061    -0.06950
C575        C  0.03262301  0.36122002  0.07582404    -0.06510
N576        N  0.93818328  0.27364868  0.01377789    -0.26040
N577        N  0.08519826  0.35996966  0.01925713    -0.46800
H578        H  0.05311906  0.25443423  0.09246093     0.06850
C579        C  0.97261256  0.25610592  0.90916292    -0.06930
Cl580      Cl  0.00318235  0.30497497  0.99548816    -0.49930
C581        C  0.00397607  0.37780811  0.90278924     0.42600
H582        H  0.90623997  0.25806224  0.04853017     0.06810
N583        N  0.02415324  0.25834335  0.90372660    -0.46640
C584        C  0.91586905  0.60904493  0.99826190     0.42450
N585        N  0.94478027  0.64620531  0.01235628     0.01340
C586        C  0.03849942  0.73281283  0.91528265    -0.06530
H587        H  0.06191965  0.62018525  0.91436924     0.06830
C588        C  0.08934599  0.62343704  0.02752758    -0.06890
Co589      Co  0.97070034  0.68039095  0.95847247     0.74180
N590        N  0.02692380  0.64766901  0.93693919    -0.26060
Co591      Co  0.05024523  0.68125777  0.96217495     0.74070
C592        C  0.10197068  0.60957467  0.99956206     0.42550
N593        N  0.02104283  0.64540653  0.06355200     0.00960
N594        N  0.07305121  0.64717220  0.98686969     0.01060
N595        N  0.98716850  0.72848470  0.90969040    -0.46910
H596        H  0.92440507  0.61920455  0.94670466     0.06820
N597        N  0.99656318  0.64738116  0.93566163     0.01350
N598        N  0.07328206  0.71442463  0.98807262     0.01090
C599        C  0.11387075  0.74030410  0.00129945     0.42690
N600        N  0.99066990  0.64560441  0.06236188    -0.25520
C601        C  0.92064780  0.72915979  0.97235925    -0.06440
N602        N  0.92655013  0.62408277  0.02320084    -0.46630
N603        N  0.09688753  0.73056368  0.97714278    -0.46850
C604        C  0.90446547  0.74073499  0.00002701     0.42470
N605        N  0.99642522  0.71380738  0.93475979     0.01340
N606        N  0.99087688  0.71208406  0.06428554    -0.25540
N607        N  0.94623240  0.64662618  0.98192062    -0.26030
N608        N  0.02120131  0.71189884  0.06625744     0.00980
H609        H  0.95507888  0.72982460  0.09333010     0.06870
H610        H  0.10594048  0.72721799  0.05233201     0.06900
N611        N  0.02666889  0.71467992  0.93746883    -0.26080
N612        N  0.07169661  0.64649708  0.01730803    -0.25700
N613        N  0.94382088  0.71322901  0.01324821     0.01340
C614        C  0.01041113  0.61063788  0.90597192     0.42740
C615        C  0.97959594  0.62241807  0.07974267    -0.06950
N616        N  0.07321658  0.71276712  0.01850266    -0.25690
H617        H  0.09349112  0.61776752  0.05147422     0.06890
N618        N  0.98569967  0.62573037  0.91718858    -0.46920
H619        H  0.95550412  0.61728563  0.08403028     0.06870
C620        C  0.00596613  0.73756476  0.10646730     0.42570
C621        C  0.92859729  0.62390296  0.97084276    -0.06440
Co622      Co  0.96723283  0.67956869  0.03827766     0.73820
N623        N  0.03179774  0.62312105  0.08128343    -0.46630
C624        C  0.01247779  0.74051002  0.89552389     0.42840
N625        N  0.92033417  0.72934839  0.02427166    -0.46620
Co626      Co  0.04700464  0.67938902  0.04175104     0.73890
C627        C  0.09760826  0.72864773  0.02892081    -0.06950
C628        C  0.03785961  0.62505222  0.91884664    -0.06510
N629        N  0.94442785  0.71266332  0.98276162    -0.26040
N630        N  0.09114119  0.62550471  0.97522129    -0.46800
H631        H  0.06281275  0.73566237  0.91074888     0.06850
C632        C  0.97935718  0.72876870  0.08759146    -0.06930
Cl633      Cl  0.00879538  0.68051650  0.00018074    -0.49930
C634        C  0.00693043  0.60761225  0.09197164     0.42600
H635        H  0.91325425  0.72881361  0.94863703     0.06810
N636        N  0.03088581  0.72631147  0.09129359    -0.46640
C637        C  0.50539372  0.87905097  0.90508195     0.42450
N638        N  0.51937058  0.84029920  0.93170015     0.01340
C639        C  0.41990181  0.75351041  0.02196293    -0.06530
H640        H  0.42011885  0.86288250  0.04657083     0.06830
C641        C  0.53184097  0.86130129  0.07573168    -0.06890
Co642      Co  0.46616468  0.80363946  0.95486181     0.74180
N643        N  0.44272624  0.83566796  0.01135934    -0.26060
Co644      Co  0.46808485  0.80297311  0.03485055     0.74070
C645        C  0.50360329  0.87470624  0.08787406     0.42550
N646        N  0.56912713  0.84134359  0.00825249     0.00960
N647        N  0.49186788  0.83744088  0.05804600     0.01060
N648        N  0.41879766  0.75329965  0.97012731    -0.46910
H649        H  0.45393835  0.86721433  0.91134971     0.06820
N650        N  0.44159548  0.83584506  0.98092221     0.01350
N651        N  0.49430290  0.77026899  0.05841965     0.01090
C652        C  0.50746011  0.74581635  0.09976743     0.42690
N653        N  0.56824626  0.84164780  0.97785071    -0.25520
C654        C  0.48521677  0.75813068  0.90146585    -0.06440
N655        N  0.53020695  0.86395829  0.91557123    -0.46630
N656        N  0.48337217  0.75460402  0.08241168    -0.46850
C657        C  0.51471413  0.74919599  0.88678858     0.42470
N658        N  0.44308210  0.76888455  0.98012773     0.01340
N659        N  0.57232896  0.77543529  0.97679276    -0.25540
N660        N  0.48902383  0.83893444  0.93206436    -0.26030
N661        N  0.57419270  0.77514181  0.00720308     0.00980
H662        H  0.60187262  0.75949545  0.94033047     0.06870
H663        H  0.55832702  0.75865029  0.09206285     0.06900
N664        N  0.44380441  0.76963312  0.01063201    -0.26080
N665        N  0.52223857  0.83838395  0.05753009    -0.25700
N666        N  0.52299585  0.77297142  0.92974026     0.01340
C667        C  0.41186893  0.87248446  0.99504074     0.42740
C668        C  0.58526563  0.86530441  0.96729185    -0.06950
N669        N  0.52472111  0.77230396  0.05859726    -0.25690
H670        H  0.55558035  0.86703801  0.08065905     0.06890
N671        N  0.42321894  0.85756705  0.97011822    -0.46920
H672        H  0.58995066  0.87067700  0.94327808     0.06870
C673        C  0.61545425  0.75234363  0.99094041     0.42570
C674        C  0.47798318  0.86259986  0.91572412    -0.06440
Co675      Co  0.54569632  0.80731050  0.95380546     0.73820
N676        N  0.58633331  0.86374631  0.01961761    -0.46630
C677        C  0.40286766  0.74245505  0.99510903     0.42840
N678        N  0.53658814  0.75885743  0.90633358    -0.46620
Co679      Co  0.54786938  0.80640925  0.03315991     0.73890
C680        C  0.53507465  0.75700239  0.08339451    -0.06950
C681        C  0.42448865  0.85798348  0.02242981    -0.06510
N682        N  0.49263514  0.77282236  0.92783172    -0.26040
N683        N  0.47966069  0.85875884  0.07622590    -0.46800
H684        H  0.41260467  0.75467857  0.04580555     0.06850
C685        C  0.59629423  0.76026268  0.96465868    -0.06930
Cl686      Cl  0.50693654  0.80452797  0.99418000    -0.49930
C687        C  0.59693389  0.87983544  0.99506804     0.42600
H688        H  0.46260945  0.75839181  0.89115611     0.06810
N689        N  0.60005698  0.76208311  0.01650119    -0.46640
C690        C  0.60028476  0.99699696  0.88046817     0.42450
N691        N  0.57061771  0.98320323  0.84360026     0.01340
C692        C  0.47666419  0.07991024  0.75891078    -0.06530
H693        H  0.45298238  0.07766790  0.87223180     0.06830
C694        C  0.42576497  0.96573399  0.86664462    -0.06890
Co695      Co  0.54473118  0.03699667  0.80992418     0.74180
N696        N  0.48815427  0.05725433  0.84324308    -0.26060
Co697      Co  0.46450032  0.03239647  0.80970265     0.74070
C698        C  0.41294539  0.99302201  0.88122834     0.42550
N699        N  0.49362878  0.93159150  0.84417995     0.00960
N700        N  0.44191370  0.00709884  0.84367468     0.01060
N701        N  0.52793229  0.08634859  0.76233495    -0.46910
H702        H  0.59191957  0.04847472  0.87093763     0.06820
N703        N  0.51854794  0.05881796  0.84346649     0.01350
N704        N  0.44053416  0.00640009  0.77684490     0.01090
C705        C  0.40191835  0.99015675  0.74963033     0.42690
N706        N  0.52397821  0.93315133  0.84420532    -0.25520
C707        C  0.59638844  0.02332179  0.76201973    -0.06440
N708        N  0.58903067  0.97231732  0.86527112    -0.46630
N709        N  0.41601200  0.01555200  0.76133265    -0.46850
C710        C  0.61284908  0.99564164  0.75160585     0.42470
N711        N  0.51883248  0.06085651  0.77682164     0.01340
N712        N  0.52426463  0.93060176  0.77772217    -0.25540
N713        N  0.56939588  0.01356039  0.84350454    -0.26030
N714        N  0.49386948  0.92944033  0.77732273     0.00980
H715        H  0.55897481  0.89926497  0.76155785     0.06870
H716        H  0.41759596  0.93971229  0.75670645     0.06900
N717        N  0.48855465  0.05762227  0.77632173    -0.26080
N718        N  0.44343203  0.97679532  0.84362903    -0.25700
N719        N  0.57105484  0.98268088  0.77623123     0.01340
C720        C  0.50439589  0.08625939  0.88178626     0.42740
C721        C  0.53454507  0.91598983  0.86749649    -0.06950
N722        N  0.44315289  0.97618629  0.77679105    -0.25690
H723        H  0.42168909  0.94165039  0.87180585     0.06890
N724        N  0.52928596  0.07615278  0.86610341    -0.46920
H725        H  0.55851780  0.91190761  0.87269620     0.06870
C726        C  0.50791101  0.88918734  0.75185903     0.42570
C727        C  0.58747051  0.02443303  0.86606010    -0.06440
Co728      Co  0.54773958  0.95727640  0.81015251     0.73820
N729        N  0.48234896  0.91375542  0.86641022    -0.46630
C730        C  0.50265899  0.10019345  0.75051625     0.42840
N731        N  0.59521005  0.97165577  0.76119007    -0.46620
Co732      Co  0.46842843  0.95331893  0.81018971     0.73890
C733        C  0.42125474  0.96411278  0.75893994    -0.06950
C734        C  0.47707403  0.07408879  0.86672973    -0.06510
N735        N  0.57117896  0.01311885  0.77717708    -0.26040
N736        N  0.42359130  0.01790635  0.86573197    -0.46800
H737        H  0.45221814  0.08422044  0.75741805     0.06850
C738        C  0.53518063  0.90661317  0.76160819    -0.06930
Cl739      Cl  0.50642848  0.99508704  0.80934068    -0.49930
C740        C  0.50685886  0.90348117  0.88213137     0.42600
H741        H  0.60501505  0.04665483  0.76360435     0.06810
N742        N  0.48331778  0.90499447  0.76244963    -0.46640
C743        C  0.50533286  0.10875726  0.90669299     0.42450
N744        N  0.49079862  0.14500879  0.93649927     0.01340
C745        C  0.59085705  0.22656279  0.03049747    -0.06530
H746        H  0.58634456  0.11699136  0.05427425     0.06830
C747        C  0.47192196  0.12002356  0.08043221    -0.06890
Co748      Co  0.54367048  0.17920062  0.96384883     0.74180
N749        N  0.56439864  0.14512621  0.01970519    -0.26060
Co750      Co  0.53914203  0.17794010  0.04365847     0.74070
C751        C  0.49933717  0.10544682  0.09292866     0.42550
N752        N  0.43802199  0.14333595  0.01254464     0.00960
N753        N  0.51319481  0.14384586  0.06511925     0.01060
N754        N  0.59005918  0.22783504  0.97871221    -0.46910
H755        H  0.55666120  0.11874032  0.91570509     0.06820
N756        N  0.56598760  0.14552932  0.98926551     0.01350
N757        N  0.51219029  0.21012054  0.06788351     0.01090
C758        C  0.49427999  0.23429424  0.10794811     0.42690
N759        N  0.43981072  0.14364677  0.98210691    -0.25520
C760        C  0.53328479  0.22979487  0.91586717    -0.06440
N761        N  0.48033623  0.12349259  0.91767916    -0.46630
N762        N  0.52027858  0.22360361  0.09406235    -0.46850
C763        C  0.50779409  0.23771888  0.89539060     0.42470
N764        N  0.56608900  0.21249188  0.98987038     0.01340
N765        N  0.43824613  0.21065594  0.98215702    -0.25540
N766        N  0.52111397  0.14552687  0.93821210    -0.26030
N767        N  0.43543994  0.20987871  0.01255156     0.00980
H768        H  0.41032183  0.22996592  0.94642852     0.06870
H769        H  0.44467965  0.22903657  0.09041061     0.06900
N770        N  0.56588920  0.21121700  0.02036400    -0.26080
N771        N  0.48285562  0.14360960  0.06339063    -0.25700
N772        N  0.49064218  0.21137697  0.93470003     0.01340
C773        C  0.59524842  0.10848733  0.00247236     0.42740
C774        C  0.42273470  0.12026637  0.97122790    -0.06950
N775        N  0.48200305  0.21048947  0.06421566    -0.25690
H776        H  0.44787201  0.11426954  0.08408677     0.06890
N777        N  0.58446243  0.12407162  0.97794553    -0.46920
H778        H  0.41892649  0.11509130  0.94712365     0.06870
C779        C  0.39567075  0.23539493  0.99726936     0.42570
C780        C  0.53250150  0.12328328  0.91998714    -0.06440
Co781      Co  0.46460617  0.17800035  0.95859352     0.73820
N782        N  0.42014104  0.12098076  0.02352345    -0.46630
C783        C  0.60746200  0.23710863  0.00250489     0.42840
N784        N  0.48208893  0.22587418  0.90920733    -0.46620
Co785      Co  0.45933173  0.17714617  0.03835238     0.73890
C786        C  0.46915423  0.22714928  0.08681174    -0.06950
C787        C  0.58224284  0.12236964  0.03025178    -0.06510
N788        N  0.52077643  0.21220818  0.93810323    -0.26040
N789        N  0.52403766  0.12150363  0.08272081    -0.46800
H790        H  0.59922706  0.22555844  0.05393549     0.06850
C791        C  0.41539773  0.22776504  0.97070645    -0.06930
Cl792      Cl  0.50168374  0.17850788  0.00111581    -0.49930
C793        C  0.40990936  0.10537223  0.99880094     0.42600
H794        H  0.55774132  0.23223585  0.91241138     0.06810
N795        N  0.41010915  0.22390268  0.02230347    -0.46640
C796        C  0.50134168  0.89681386  0.11305691     0.42450
N797        N  0.51440691  0.92397508  0.15187242     0.01340
C798        C  0.41570742  0.01416304  0.23900046    -0.06530
H799        H  0.41515145  0.03871117  0.12641003     0.06830
C800        C  0.52842040  0.06828022  0.12995037    -0.06890
Co801      Co  0.46014279  0.94788785  0.18655142     0.74180
N802        N  0.43765905  0.00396722  0.15388090    -0.26060
Co803      Co  0.46256487  0.02807627  0.18701123     0.74070
C804        C  0.50077813  0.08073758  0.11582600     0.42550
N805        N  0.56456691  0.00099618  0.15181061     0.00960
N806        N  0.48743658  0.05094286  0.15294165     0.01060
N807        N  0.41309124  0.96249374  0.23725094    -0.46910
H808        H  0.44960832  0.90350657  0.12311402     0.06820
N809        N  0.43671896  0.97357529  0.15354582     0.01350
N810        N  0.48822598  0.05297048  0.21946008     0.01090
C811        C  0.50444371  0.09292937  0.24453842     0.42690
N812        N  0.56394820  0.97065090  0.15147088    -0.25520
C813        C  0.47503241  0.89732046  0.23512884    -0.06440
N814        N  0.52576036  0.90745222  0.12882385    -0.46630
N815        N  0.47904212  0.07860762  0.23334865    -0.46850
C816        C  0.50303709  0.88207393  0.24637751     0.42470
N817        N  0.43674825  0.97300308  0.22069645     0.01340
N818        N  0.56681684  0.96999094  0.21764724    -0.25540
N819        N  0.48400423  0.92455656  0.15220417    -0.26030
N820        N  0.56619234  0.00033901  0.21902613     0.00980
H821        H  0.60116125  0.93695950  0.23071230     0.06870
H822        H  0.55471019  0.07741012  0.23907410     0.06900
N823        N  0.43811823  0.00341660  0.22068004    -0.26080
N824        N  0.51781669  0.05010696  0.15281411    -0.25700
N825        N  0.51525886  0.92240611  0.21918370     0.01340
C826        C  0.40721293  0.98719532  0.11661872     0.42740
C827        C  0.58180533  0.96062494  0.12819609    -0.06950
N828        N  0.51847050  0.05020499  0.21992634    -0.25690
H829        H  0.55240523  0.07310796  0.12475818     0.06890
N830        N  0.41859315  0.96254191  0.13164897    -0.46920
H831        H  0.58672289  0.93680641  0.12282942     0.06870
C832        C  0.60844995  0.98819419  0.24213462     0.42570
C833        C  0.47354385  0.90779531  0.12848340    -0.06440
Co834      Co  0.54020445  0.94639055  0.18534573     0.73820
N835        N  0.58235726  0.01282484  0.12977209    -0.46630
C836        C  0.39821951  0.98694663  0.24964130     0.42840
N837        N  0.52674804  0.89929993  0.23524291    -0.46620
Co838      Co  0.54190156  0.02546194  0.18620956     0.73890
C839        C  0.53039154  0.07282657  0.23706783    -0.06950
C840        C  0.41959584  0.01470295  0.13133318    -0.06510
N841        N  0.48482892  0.92179054  0.21864350    -0.26040
N842        N  0.47620787  0.06926594  0.13134490    -0.46800
H843        H  0.40929041  0.03818154  0.23989278     0.06850
C844        C  0.59227200  0.96016589  0.23211033    -0.06930
Cl845      Cl  0.50111456  0.98691161  0.18689369    -0.49930
C846        C  0.59368080  0.98868557  0.11388919     0.42600
H847        H  0.45159711  0.88878948  0.23507384     0.06810
N848        N  0.59029505  0.01177541  0.23356774    -0.46640
C849        C  0.38815712  0.89627182  0.99405193     0.42450
N850        N  0.35028278  0.92451109  0.00808743     0.01340
C851        C  0.26613288  0.01894425  0.91130442    -0.06530
H852        H  0.37780396  0.04463014  0.91384914     0.06830
C853        C  0.37100702  0.06847064  0.02759119    -0.06890
Co854      Co  0.31767059  0.95106932  0.95389219     0.74180
N855        N  0.35008175  0.00850805  0.93472816    -0.26060
Co856      Co  0.31566007  0.03072240  0.95986192     0.74070
C857        C  0.38593028  0.08161841  0.00014403     0.42550
N858        N  0.34765503  0.99940374  0.06208399     0.00960
N859        N  0.34858546  0.05290275  0.98606464     0.01060
N860        N  0.27136551  0.96800332  0.90380320    -0.46910
H861        H  0.37977827  0.90586416  0.94253269     0.06820
N862        N  0.35106827  0.97821078  0.93288331     0.01350
N863        N  0.28204783  0.05369573  0.98573252     0.01090
C864        C  0.25513560  0.09249021  0.00199375     0.42690
N865        N  0.34808368  0.96908061  0.06015758    -0.25520
C866        C  0.27025627  0.89883547  0.96480388    -0.06440
N867        N  0.37212784  0.90632192  0.01889292    -0.46630
N868        N  0.26742832  0.07884090  0.97662033    -0.46850
C869        C  0.25891709  0.88119574  0.99162640     0.42470
N870        N  0.28470744  0.97676499  0.92984700     0.01340
N871        N  0.28155669  0.96776882  0.06041054    -0.25540
N872        N  0.35095608  0.92664616  0.97766266    -0.26030
N873        N  0.28037496  0.99810548  0.06164146     0.00980
H874        H  0.26457335  0.93252755  0.09122076     0.06870
H875        H  0.26179702  0.07735809  0.05254700     0.06900
N876        N  0.28328060  0.00690898  0.93370404    -0.26080
N877        N  0.34812672  0.05087436  0.01648642    -0.25700
N878        N  0.28320931  0.92219767  0.00687587     0.01340
C879        C  0.38873803  0.99357996  0.90475772     0.42740
C880        C  0.37036569  0.95830747  0.07850495    -0.06950
N881        N  0.28124666  0.05047796  0.01601449    -0.25690
H882        H  0.37603652  0.07213450  0.05174031     0.06890
N883        N  0.37375691  0.96826009  0.91496271    -0.46920
H884        H  0.37557954  0.93428937  0.08250334     0.06870
C885        C  0.25253550  0.98312531  0.10094548     0.42570
C886        C  0.37419115  0.90948977  0.96666330    -0.06440
Co887      Co  0.31551583  0.94556099  0.03403250     0.73820
N888        N  0.36868096  0.01038202  0.08121173    -0.46630
C889        C  0.25921139  0.99335317  0.89030043     0.42840
N890        N  0.26796774  0.89752732  0.01661296    -0.46620
Co891      Co  0.31412193  0.02485150  0.03931649     0.73890
C892        C  0.26359757  0.07263596  0.02807431    -0.06950
C893        C  0.37313270  0.02038331  0.91752086    -0.06510
N894        N  0.28500579  0.92343170  0.97640286    -0.26040
N895        N  0.37070953  0.07119838  0.97531011    -0.46800
H896        H  0.26449780  0.04339294  0.90668220     0.06850
C897        C  0.26440288  0.95635250  0.08383095    -0.06930
Cl898      Cl  0.31536389  0.98803475  0.99680398    -0.49930
C899        C  0.38398799  0.98578142  0.09223797     0.42600
H900        H  0.27207524  0.89167977  0.94098111     0.06810
N901        N  0.26354535  0.00792205  0.08527021    -0.46640
C902        C  0.61802881  0.99115726  0.09065672     0.42450
N903        N  0.65683327  0.97930381  0.06260276     0.01340
C904        C  0.73982400  0.08544839  0.97627277    -0.06530
H905        H  0.63042586  0.07931704  0.94895496     0.06830
C906        C  0.63878270  0.96794251  0.91636071    -0.06890
Co907      Co  0.69054838  0.03447106  0.03978924     0.74180
N908        N  0.65822939  0.05712631  0.98354938    -0.26060
Co909      Co  0.69288126  0.03434225  0.95965213     0.74070
C910        C  0.62412303  0.99552563  0.90430470     0.42550
N911        N  0.65955587  0.93107573  0.98415631     0.00960
N912        N  0.66037062  0.00892881  0.93487337     0.01060
N913        N  0.73877037  0.08307144  0.02809725    -0.46910
H914        H  0.62703810  0.04312038  0.08465477     0.06820
N915        N  0.65746024  0.05737778  0.01403209     0.01350
N916        N  0.72752467  0.01019768  0.93624358     0.01090
C917        C  0.75741406  0.99841632  0.89781178     0.42690
N918        N  0.65901166  0.93156412  0.01461531    -0.25520
C919        C  0.73757245  0.01980593  0.09156283    -0.06440
N920        N  0.63425948  0.96716548  0.07951814    -0.46630
N921        N  0.74474059  0.02205194  0.91373919    -0.46850
C922        C  0.74763108  0.99146619  0.10713112     0.42470
N923        N  0.72442714  0.05913633  0.01593529     0.01340
N924        N  0.72579864  0.93191099  0.01611461    -0.25540
N925        N  0.65646706  0.00964570  0.06246863    -0.26030
N926        N  0.72611269  0.92952409  0.98576581     0.00980
H927        H  0.74488509  0.90523211  0.05254077     0.06870
H928        H  0.74694725  0.94678024  0.90459148     0.06900
N929        N  0.72437461  0.06011746  0.98542213    -0.26080
N930        N  0.66090460  0.97853341  0.93505816    -0.25700
N931        N  0.72377021  0.98007419  0.06511498     0.01340
C932        C  0.61960623  0.08551300  0.00072914     0.42740
C933        C  0.63540371  0.91429344  0.02479833    -0.06950
N934        N  0.72740838  0.97973670  0.93591551    -0.25690
H935        H  0.63416583  0.94398498  0.91123587     0.06890
N936        N  0.63471029  0.07431490  0.02532757    -0.46920
H937        H  0.62945669  0.90980507  0.04872263     0.06870
C938        C  0.75314800  0.89081563  0.00194338     0.42570
C939        C  0.63268108  0.01937482  0.07970463    -0.06440
Co940      Co  0.69162984  0.95554381  0.03975470     0.73820
N941        N  0.63724730  0.91395818  0.97242214    -0.46630
C942        C  0.74868090  0.10131395  0.00478215     0.42840
N943        N  0.73839938  0.96813604  0.08890163    -0.46620
Co944      Co  0.69379316  0.95432347  0.95986309     0.73890
C945        C  0.74586249  0.97024721  0.91286457    -0.06950
C946        C  0.63512006  0.07442989  0.97296512    -0.06510
N947        N  0.72260713  0.01039935  0.06620503    -0.26040
N948        N  0.63876312  0.02010919  0.91654604    -0.46800
H949        H  0.73969314  0.09456096  0.95298946     0.06850
C950        C  0.74365469  0.91012942  0.02807990    -0.06930
Cl951      Cl  0.69260032  0.99469590  0.99974279    -0.49930
C952        C  0.62105719  0.90303192  0.99683376     0.42600
H953        H  0.73673005  0.04296629  0.10071806     0.06810
N954        N  0.74143839  0.90473226  0.97650508    -0.46640
C955        C  0.00823449  0.87333144  0.59768748     0.42450
N956        N  0.99522777  0.83599473  0.56829785     0.01340
C957        C  0.09612182  0.75602931  0.47267181    -0.06530
H958        H  0.09061880  0.86702478  0.45046431     0.06830
C959        C  0.97937538  0.85905349  0.42224428    -0.06890
Co960      Co  0.04980187  0.80329653  0.54132928     0.74180
N961        N  0.06999430  0.83794594  0.48555242    -0.26060
Co962      Co  0.04643510  0.80410290  0.46169985     0.74070
C963        C  0.00675937  0.87375698  0.40918095     0.42550
N964        N  0.94483947  0.83637469  0.49126584     0.00960
N965        N  0.02073617  0.83734591  0.43908061     0.01060
N966        N  0.10002714  0.75719377  0.52437587    -0.46910
H967        H  0.05995480  0.86456111  0.58918084     0.06820
N968        N  0.07143428  0.83779447  0.51598375     0.01350
N969        N  0.02184765  0.77039150  0.43814503     0.01090
C970        C  0.00923280  0.74418084  0.39769385     0.42690
N971        N  0.94613400  0.83639439  0.52170772    -0.25520
C972        C  0.03731479  0.75041974  0.58751374    -0.06440
N973        N  0.98383735  0.85775140  0.58651710    -0.46630
N974        N  0.03316237  0.75518793  0.41418204    -0.46850
C975        C  0.01060740  0.74102925  0.60654327     0.42470
N976        N  0.07468018  0.77131366  0.51513553     0.01340
N977        N  0.94467853  0.76952836  0.52140045    -0.25540
N978        N  0.02559846  0.83614647  0.56704926    -0.26030
N979        N  0.94388672  0.76899728  0.49091898     0.00980
H980        H  0.91317118  0.75315700  0.55635419     0.06870
H981        H  0.95793257  0.75528591  0.40613957     0.06900
N982        N  0.07258053  0.77171978  0.48479337    -0.26080
N983        N  0.99039429  0.83676378  0.44043288    -0.25700
N984        N  0.99577719  0.76920331  0.56822223     0.01340
C985        C  0.09878010  0.87627272  0.50202956     0.42740
C986        C  0.92906173  0.85974802  0.53258835    -0.06950
N987        N  0.99142992  0.77062423  0.43859886    -0.25690
H988        H  0.95530849  0.86339807  0.41771110     0.06890
N989        N  0.08878723  0.86032893  0.52693234    -0.46920
H990        H  0.92487520  0.86499087  0.55668393     0.06870
C991        C  0.90334246  0.74323521  0.50543025     0.42570
C992        C  0.03600922  0.85904195  0.58504096    -0.06440
Co993      Co  0.97016509  0.80254334  0.54523167     0.73820
N994        N  0.92728847  0.85865678  0.48032180    -0.46630
C995        C  0.11514744  0.74673845  0.49896908     0.42840
N996        N  0.98578956  0.75318959  0.59239750    -0.46620
Co997      Co  0.96723053  0.80286408  0.46516067     0.73890
C998        C  0.98138136  0.75457536  0.41418731    -0.06950
C999        C  0.08669169  0.86155678  0.47458435    -0.06510
N1000       N  0.02611739  0.76907750  0.56581816    -0.26040
N1001       N  0.03158835  0.85904459  0.42031784    -0.46800
H1002       H  0.10188847  0.75653010  0.44833586     0.06850
C1003       C  0.92084185  0.75294579  0.53249442    -0.06930
Cl1004     Cl  0.00842777  0.80282362  0.50334041    -0.49930
C1005       C  0.91670143  0.87433094  0.50505371     0.42600
H1006       H  0.06147375  0.74901584  0.59332360     0.06810
N1007       N  0.91962732  0.75362007  0.48067322    -0.46640
C1008       C  0.89032024  0.98691888  0.40940693     0.42450
N1009       N  0.85282594  0.97355634  0.43881211     0.01340
C1010       C  0.76834338  0.07589676  0.52779242    -0.06530
H1011       H  0.87961698  0.07502928  0.55163056     0.06830
C1012       C  0.87670094  0.96323644  0.58272747    -0.06890
Co1013     Co  0.81855771  0.02780333  0.46267315     0.74180
N1014       N  0.85171991  0.05178360  0.51770043    -0.26060
Co1015     Co  0.81857632  0.02749523  0.54263895     0.74070
C1016       C  0.89109585  0.99143153  0.59371258     0.42550
N1017       N  0.85379637  0.92489480  0.51718101     0.00960
N1018       N  0.85277003  0.00333545  0.56563860     0.01060
N1019       N  0.76929986  0.07493530  0.47594935    -0.46910
H1020       H  0.88018670  0.03850070  0.41577513     0.06820
N1021       N  0.85185511  0.05197317  0.48723517     0.01350
N1022       N  0.78594638  0.00206026  0.56794790     0.01090
C1023       C  0.76157961  0.98888451  0.60988053     0.42690
N1024       N  0.85345583  0.92523605  0.48673469    -0.25520
C1025       C  0.76974096  0.01184202  0.41325052    -0.06440
N1026       N  0.87513599  0.96231265  0.42112390    -0.46630
N1027       N  0.77129122  0.01299755  0.59250232    -0.46850
C1028       C  0.75978514  0.98352235  0.39776095     0.42470
N1029       N  0.78493547  0.05161135  0.48752020     0.01340
N1030       N  0.78666674  0.92322343  0.48783345    -0.25540
N1031       N  0.85242033  0.00392845  0.43896382    -0.26030
N1032       N  0.78676695  0.92249327  0.51828055     0.00980
H1033       H  0.76662797  0.89429274  0.45358032     0.06870
H1034       H  0.77255644  0.93775651  0.60133910     0.06900
N1035       N  0.78527812  0.05195819  0.51802059    -0.26080
N1036       N  0.85322291  0.97293898  0.56545359    -0.25700
N1037       N  0.78576149  0.97213227  0.43847952     0.01340
C1038       C  0.88914353  0.08166388  0.49965916     0.42740
C1039       C  0.87691450  0.90823382  0.47603430    -0.06950
N1040       N  0.78700959  0.97164682  0.56814702    -0.25690
H1041       H  0.88240338  0.93948656  0.58756537     0.06890
N1042       N  0.87385823  0.06981605  0.47540529    -0.46920
H1043       H  0.88210962  0.90362596  0.45199254     0.06870
C1044       C  0.75751040  0.88403213  0.50537410     0.42570
C1045       C  0.87534328  0.01454719  0.42091442    -0.06440
Co1046     Co  0.81941461  0.94830026  0.46271350     0.73820
N1047       N  0.87655228  0.90811167  0.52838004    -0.46630
C1048       C  0.75799172  0.09177452  0.49961759     0.42840
N1049       N  0.77042054  0.96009029  0.41511955    -0.46620
Co1050     Co  0.81992924  0.94761974  0.54251749     0.73890
C1051       C  0.77159543  0.96127073  0.59308675    -0.06950
C1052       C  0.87452205  0.07000809  0.52774248    -0.06510
N1053       N  0.78611965  0.00254403  0.43768865    -0.26040
N1054       N  0.87503321  0.01542546  0.58253624    -0.46800
H1055       H  0.76809983  0.08416777  0.55134610     0.06850
C1056       C  0.76825688  0.90072194  0.47761735    -0.06930
Cl1057     Cl  0.81869643  0.98781374  0.50265723    -0.49930
C1058       C  0.89219415  0.89721609  0.50367375     0.42600
H1059       H  0.76954627  0.03515210  0.40434249     0.06810
N1060       N  0.77026547  0.89918318  0.52947233    -0.46640
C1061       C  0.12249732  0.89988183  0.50263393     0.42450
N1062       N  0.16022976  0.92768661  0.48739614     0.01340
C1063       C  0.24580978  0.02366598  0.58090910    -0.06530
H1064       H  0.13275865  0.04476090  0.58196066     0.06830
C1065       C  0.13709745  0.07087130  0.46786744    -0.06890
Co1066     Co  0.19486033  0.95415334  0.54012587     0.74180
N1067       N  0.16135237  0.01003782  0.56051634    -0.26060
Co1068     Co  0.19447241  0.03355691  0.53410482     0.74070
C1069       C  0.12282843  0.08372617  0.49553925     0.42550
N1070       N  0.15942804  0.00246086  0.43342913     0.00960
N1071       N  0.16031584  0.05515212  0.50892396     0.01060
N1072       N  0.24279105  0.97245321  0.58834350    -0.46910
H1073       H  0.13305667  0.90847008  0.55388951     0.06820
N1074       N  0.16164040  0.97973973  0.56270234     0.01350
N1075       N  0.22699079  0.05723931  0.50725740     0.01090
C1076       C  0.25322404  0.09717560  0.49215159     0.42690
N1077       N  0.15939164  0.97214032  0.43551352    -0.25520
C1078       C  0.24333002  0.90406375  0.52702079    -0.06440
N1079       N  0.13758083  0.91006837  0.47728146    -0.46630
N1080       N  0.24214784  0.08180772  0.51707047    -0.46850
C1081       C  0.25336202  0.88609867  0.49985646     0.42470
N1082       N  0.22811309  0.98075235  0.56289797     0.01340
N1083       N  0.22561825  0.97190239  0.43249996    -0.25540
N1084       N  0.16098724  0.92926982  0.51779813    -0.26030
N1085       N  0.22606041  0.00226017  0.43002614     0.00980
H1086       H  0.24108979  0.93557285  0.40266206     0.06870
H1087       H  0.24357504  0.08555427  0.44107747     0.06900
N1088       N  0.22828473  0.01094461  0.55916010    -0.26080
N1089       N  0.16013478  0.05348229  0.47849646    -0.25700
N1090       N  0.22700797  0.92606995  0.48551222     0.01340
C1091       C  0.12416795  0.99321368  0.59181863     0.42740
C1092       C  0.13648212  0.96094644  0.41815090    -0.06950
N1093       N  0.22655905  0.05549392  0.47681555    -0.25690
H1094       H  0.13172716  0.07475921  0.44382400     0.06890
N1095       N  0.13989378  0.96867568  0.58135625    -0.46920
H1096       H  0.13140941  0.93683340  0.41432650     0.06870
C1097       C  0.25079859  0.98603715  0.38955700     0.42570
C1098       C  0.13790898  0.91221499  0.52960229    -0.06440
Co1099     Co  0.19334254  0.94916908  0.46012948     0.73820
N1100       N  0.13758347  0.01305135  0.41516324    -0.46630
C1101       C  0.25458280  0.99829549  0.60139147     0.42840
N1102       N  0.24216857  0.90169755  0.47525122    -0.46620
Co1103     Co  0.19342642  0.02862188  0.45439903     0.73890
C1104       C  0.24305672  0.07916587  0.46523616    -0.06950
C1105       C  0.13833436  0.02076316  0.57834255    -0.06510
N1106       N  0.22707869  0.92773781  0.51594995    -0.26040
N1107       N  0.13847685  0.07329505  0.52013649    -0.46800
H1108       H  0.24688307  0.04815889  0.58541434     0.06850
C1109       C  0.24117219  0.95977075  0.40859976    -0.06930
Cl1110     Cl  0.19452137  0.99140630  0.49714799    -0.49930
C1111       C  0.12208769  0.98817805  0.40493287     0.42600
H1112       H  0.24368553  0.89849592  0.55120760     0.06810
N1113       N  0.24034243  0.01144031  0.40438786    -0.46640
C1114       C  0.91314803  0.10528172  0.49734099     0.42450
N1115       N  0.94243188  0.14296960  0.50958837     0.01340
C1116       C  0.03499037  0.22780295  0.40994634    -0.06530
H1117       H  0.05835025  0.11342501  0.41308214     0.06830
C1118       C  0.08722741  0.12294758  0.52434735    -0.06890
Co1119     Co  0.96711327  0.17574648  0.45406406     0.74180
N1120       N  0.02341825  0.14253797  0.43351286    -0.26060
Co1121     Co  0.04710474  0.17695728  0.45698570     0.74070
C1122       C  0.09923736  0.10754986  0.49691543     0.42550
N1123       N  0.01971638  0.14571079  0.55994621     0.00960
N1124       N  0.06998291  0.14425114  0.48282416     0.01060
N1125       N  0.98375343  0.22378997  0.40394143    -0.46910
H1126       H  0.92057353  0.11385866  0.44532691     0.06820
N1127       N  0.99305385  0.14205589  0.43250312     0.01350
N1128       N  0.07123466  0.21065726  0.48101518     0.01090
C1129       C  0.11145042  0.23674155  0.49455134     0.42690
N1130       N  0.98935674  0.14498488  0.55902660    -0.25520
C1131       C  0.91467121  0.22234316  0.46782276    -0.06440
N1132       N  0.92442925  0.12116605  0.52151257    -0.46630
N1133       N  0.09644000  0.22447112  0.47025790    -0.46850
C1134       C  0.89800966  0.23204541  0.49595365     0.42470
N1135       N  0.99280617  0.20859706  0.42886156     0.01340
N1136       N  0.98823309  0.21179497  0.55843154    -0.25540
N1137       N  0.94316297  0.14247848  0.47911630    -0.26030
N1138       N  0.01855055  0.21217716  0.56040922     0.00980
H1139       H  0.95229597  0.22986975  0.58725072     0.06870
H1140       H  0.09842038  0.23121526  0.54590640     0.06900
N1141       N  0.02301689  0.20941771  0.43165854    -0.26080
N1142       N  0.06928663  0.14538967  0.51325435    -0.25700
N1143       N  0.94071362  0.20981455  0.50815613     0.01340
C1144       C  0.00684223  0.10312257  0.40585510     0.42740
C1145       C  0.97921636  0.12185356  0.57702807    -0.06950
N1146       N  0.06912808  0.21210084  0.51139701    -0.25690
H1147       H  0.09181632  0.11852108  0.54846865     0.06890
N1148       N  0.98212184  0.11889842  0.41600410    -0.46920
H1149       H  0.95534369  0.11596835  0.58160556     0.06870
C1150       C  0.00289023  0.23901309  0.59968562     0.42570
C1151       C  0.92529763  0.11933650  0.46919232    -0.06440
Co1152     Co  0.96498084  0.17763798  0.53394458     0.73820
N1153       N  0.03142060  0.12416042  0.57793436    -0.46630
C1154       C  0.00920850  0.23617814  0.38997076     0.42840
N1155       N  0.91616402  0.22377337  0.51956321    -0.46620
Co1156     Co  0.04436124  0.17921746  0.53651753     0.73890
C1157       C  0.09223857  0.22952320  0.52180869    -0.06950
C1158       C  0.03430824  0.11875053  0.41705415    -0.06510
N1159       N  0.94039815  0.20837949  0.47766697    -0.26040
N1160       N  0.08787808  0.12206512  0.47200171    -0.46800
H1161       H  0.05938221  0.23107962  0.40720289     0.06850
C1162       C  0.97650492  0.22926562  0.58102079    -0.06930
Cl1163     Cl  0.00584915  0.17781009  0.49538573    -0.49930
C1164       C  0.00720401  0.10813466  0.58918569     0.42600
H1165       H  0.90590260  0.22051200  0.44458692     0.06810
N1166       N  0.02806305  0.22743443  0.58511868    -0.46640
C1167       C  0.00781042  0.89615554  0.38403594     0.42450
N1168       N  0.99356510  0.92342024  0.34567633     0.01340
C1169       C  0.09092282  0.01726143  0.25877411    -0.06530
H1170       H  0.09020481  0.04055182  0.37102862     0.06830
C1171       C  0.97765786  0.06536591  0.36970670    -0.06890
Co1172     Co  0.04725191  0.94919393  0.31057461     0.74180
N1173       N  0.06867570  0.00538676  0.34316656    -0.26060
Co1174     Co  0.04320900  0.02880100  0.31005073     0.74070
C1175       C  0.00539534  0.07820576  0.38340477     0.42550
N1176       N  0.94190419  0.99902125  0.34681228     0.00960
N1177       N  0.01834530  0.05051218  0.34476735     0.01060
N1178       N  0.09629625  0.96587069  0.26199183    -0.46910
H1179       H  0.05919039  0.90456438  0.37322898     0.06820
N1180       N  0.07008075  0.97504434  0.34354530     0.01350
N1181       N  0.01686261  0.05275440  0.27752862     0.01090
C1182       C  0.00116555  0.09327439  0.25295329     0.42690
N1183       N  0.94322439  0.96871328  0.34698986    -0.25520
C1184       C  0.03260426  0.89938242  0.26149581    -0.06440
N1185       N  0.98289952  0.90624465  0.36876048    -0.46630
N1186       N  0.02637260  0.07790477  0.26272825    -0.46850
C1187       C  0.00476476  0.88339046  0.25070990     0.42470
N1188       N  0.07102337  0.97505000  0.27677115     0.01340
N1189       N  0.93975143  0.96885424  0.28080079    -0.25540
N1190       N  0.02393731  0.92488953  0.34487677    -0.26030
N1191       N  0.93959274  0.99922399  0.27961329     0.00980
H1192       H  0.90658330  0.93470590  0.26800393     0.06870
H1193       H  0.95077804  0.08134732  0.26389781     0.06900
N1194       N  0.06828104  0.00534543  0.27628457    -0.26080
N1195       N  0.98802634  0.04866939  0.34579241    -0.25700
N1196       N  0.99208054  0.92282068  0.27841467     0.01340
C1197       C  0.09879629  0.98916586  0.38078057     0.42740
C1198       C  0.92606956  0.95789859  0.37056235    -0.06950
N1199       N  0.98650149  0.05085409  0.27871678    -0.25690
H1200       H  0.95372859  0.06917467  0.37575317     0.06890
N1201       N  0.08805484  0.96431261  0.36561698    -0.46920
H1202       H  0.92189038  0.93388347  0.37596147     0.06870
C1203       C  0.89786178  0.98563738  0.25590534     0.42570
C1204       C  0.03508809  0.90818664  0.36827617    -0.06440
Co1205     Co  0.96703132  0.94557215  0.31267761     0.73820
N1206       N  0.92431443  0.01006521  0.36929258    -0.46630
C1207       C  0.11050707  0.99113477  0.24994415     0.42840
N1208       N  0.98080740  0.89956467  0.26235705    -0.46620
Co1209     Co  0.96380385  0.02460908  0.31241594     0.73890
C1210       C  0.97471669  0.07452024  0.26284350    -0.06950
C1211       C  0.08627070  0.01646645  0.36593620    -0.06510
N1212       N  0.02255301  0.92318625  0.27844453    -0.26040
N1213       N  0.02975728  0.06822801  0.36677077    -0.46800
H1214       H  0.09607301  0.04162948  0.25741354     0.06850
C1215       C  0.91462223  0.95821058  0.26629554    -0.06930
Cl1216     Cl  0.00537930  0.98699721  0.31064820    -0.49930
C1217       C  0.91386560  0.98542700  0.38527547     0.42600
H1218       H  0.05619952  0.89150587  0.26106690     0.06810
N1219       N  0.91519598  0.00990434  0.26511089    -0.46640
C1220       C  0.00638074  0.89802217  0.62075300     0.42450
N1221       N  0.01981808  0.92919072  0.65643530     0.01340
C1222       C  0.91877738  0.02648903  0.73465783    -0.06530
H1223       H  0.92348575  0.04573392  0.62430801     0.06830
C1224       C  0.03689959  0.07330625  0.62817404    -0.06890
Co1225     Co  0.96577183  0.95746208  0.68926556     0.74180
N1226       N  0.94546640  0.01195290  0.65335534    -0.26060
Co1227     Co  0.96991708  0.03659811  0.68622139     0.74070
C1228       C  0.00921881  0.08495854  0.61337497     0.42550
N1229       N  0.07164038  0.00596180  0.65342549     0.00960
N1230       N  0.99585274  0.05745532  0.65203507     0.01060
N1231       N  0.91685128  0.97487997  0.73638777    -0.46910
H1232       H  0.95475994  0.90701100  0.62985736     0.06820
N1233       N  0.94417034  0.98160627  0.65433428     0.01350
N1234       N  0.99551723  0.06119783  0.71868812     0.01090
C1235       C  0.00988860  0.10118016  0.74478499     0.42690
N1236       N  0.07027453  0.97557332  0.65437607    -0.25520
C1237       C  0.97558886  0.91301100  0.74275525    -0.06440
N1238       N  0.03090622  0.90985274  0.63551383    -0.46630
N1239       N  0.98527557  0.08583357  0.73349225    -0.46850
C1240       C  0.00041106  0.89192034  0.75103905     0.42470
N1241       N  0.94170878  0.98443619  0.72123557     0.01340
N1242       N  0.07117229  0.97733166  0.72129939    -0.25540
N1243       N  0.98945921  0.93060377  0.65661408    -0.26030
N1244       N  0.07362671  0.00768802  0.71990410     0.00980
H1245       H  0.09988956  0.94219941  0.74035675     0.06870
H1246       H  0.06104642  0.08977696  0.73593819     0.06900
N1247       N  0.94308415  0.01468837  0.71956496    -0.26080
N1248       N  0.02620656  0.05636690  0.65196418    -0.25700
N1249       N  0.01855385  0.92968454  0.72308437     0.01340
C1250       C  0.91533156  0.99386176  0.61666978     0.42740
C1251       C  0.08781270  0.96443558  0.63126650    -0.06950
N1252       N  0.02592648  0.05959530  0.71863788    -0.25690
H1253       H  0.06089707  0.07754141  0.62253287     0.06890
N1254       N  0.92613991  0.96977684  0.63288723    -0.46920
H1255       H  0.09198969  0.94034367  0.62652922     0.06870
C1256       C  0.11416166  0.99307850  0.74476692     0.42570
C1257       C  0.97877047  0.91153729  0.63469965    -0.06440
Co1258     Co  0.04522314  0.95263329  0.68914243     0.73820
N1259       N  0.08954097  0.01661393  0.63087792    -0.46630
C1260       C  0.90049856  0.99984327  0.74561557     0.42840
N1261       N  0.02648554  0.90455620  0.73855852    -0.46620
Co1262     Co  0.04964423  0.03261850  0.68632138     0.73890
C1263       C  0.03697560  0.08324893  0.73512839    -0.06950
C1264       C  0.92783310  0.02191632  0.63016433    -0.06510
N1265       N  0.98847585  0.93373278  0.72380780    -0.26040
N1266       N  0.98470433  0.07448747  0.62946879    -0.46800
H1267       H  0.91312580  0.05050928  0.73343873     0.06850
C1268       C  0.09460148  0.96633637  0.73795733    -0.06930
Cl1269     Cl  0.00766680  0.99481624  0.68817456    -0.49930
C1270       C  0.10033808  0.99178667  0.61583658     0.42600
H1271       H  0.95108162  0.91064569  0.74574005     0.06810
N1272       N  0.09917211  0.01774939  0.73317309    -0.46640
C1273       C  0.00444963  0.24803164  0.23336720     0.00560
C1274       C  0.99689604  0.22868052  0.25814679     0.00560
C1275       C  0.74296182  0.99227873  0.24074538     0.00560
C1276       C  0.76386598  0.99515773  0.26441050     0.00560
C1277       C  0.00664878  0.72724330  0.24126513     0.00560
C1278       C  0.00799589  0.75073740  0.26317149     0.00560
C1279       C  0.26786167  0.00169112  0.23370787     0.00560
C1280       C  0.24465114  0.99664503  0.25588459     0.00560
C1281       C  0.26582213  0.25284848  0.50735686     0.00560
C1282       C  0.24510193  0.22937302  0.50187384     0.00560
C1283       C  0.74016371  0.24781584  0.49968930     0.00560
C1284       C  0.76335650  0.22577609  0.49940883     0.00560
C1285       C  0.27003101  0.73056326  0.48684295     0.00560
C1286       C  0.24841551  0.75347114  0.48313027     0.00560
C1287       C  0.27107418  0.01093692  0.75653816     0.00560
C1288       C  0.24720058  0.01142746  0.73555590     0.00560
C1289       C  0.23906944  0.24738851  0.00272018     0.00560
C1290       C  0.26193498  0.22637035  0.00860690     0.00560
C1291       C  0.24722167  0.72512408  0.99799088     0.00560
C1292       C  0.26947749  0.74781134  0.99580797     0.00560
C1293       C  0.50267809  0.72727193  0.25576298     0.00560
C1294       C  0.51044099  0.74974681  0.23435665     0.00560
C1295       C  0.50045766  0.24926213  0.26467110     0.00560
C1296       C  0.50003537  0.22702395  0.24199340     0.00560
C1297       C  0.49658845  0.25515603  0.73939290     0.00560
C1298       C  0.49319491  0.23357126  0.76248787     0.00560
C1299       C  0.99386897  0.25610306  0.75569484     0.00560
C1300       C  0.99794246  0.23313740  0.73415922     0.00560
C1301       C  0.76392135  0.25742967  0.99985565     0.00560
C1302       C  0.74110751  0.23530757  0.00167989     0.00560
C1303       C  0.26687769  0.48985886  0.25682153     0.00560
C1304       C  0.24429002  0.48780702  0.23430472     0.00560
C1305       C  0.74151950  0.48204761  0.25682088     0.00560
C1306       C  0.76451007  0.47884231  0.23498656     0.00560
C1307       C  0.24306345  0.49972268  0.75837221     0.00560
C1308       C  0.26626045  0.50350391  0.73670592     0.00560
C1309       C  0.00254493  0.73632150  0.76159190     0.00560
C1310       C  0.00936636  0.75938336  0.74039838     0.00560
C1311       C  0.74591783  0.98857466  0.76676926     0.00560
C1312       C  0.76738399  0.98309963  0.74379161     0.00560
C1313       C  0.77196138  0.73512739  0.00778667     0.00560
C1314       C  0.74812474  0.75633679  0.01010241     0.00560
C1315       C  0.74580887  0.49855566  0.73779157     0.00560
C1316       C  0.76866666  0.49852867  0.76004723     0.00560
C1317       C  0.74575315  0.72960854  0.50121241     0.00560
C1318       C  0.76800807  0.75210309  0.50591376     0.00560
C1319       C  0.52593245  0.73483289  0.73168286     0.00560
C1320       C  0.53010428  0.75761936  0.75381386     0.00560
C1321       C  0.85378200  0.96720608  0.75018066    -0.05790
C1322       C  0.86619011  0.99727074  0.75101259     0.00140
C1323       C  0.84523340  0.02228766  0.75492272    -0.08430
C1324       C  0.81324876  0.01608584  0.75457621    -0.05810
C1325       C  0.80126616  0.98627029  0.75046268     0.00130
C1326       C  0.82201235  0.96117335  0.75016907    -0.08340
C1327       C  0.81255178  0.92753470  0.75017659     0.62040
H1328       H  0.86912649  0.94761299  0.74884809     0.12730
H1329       H  0.79710573  0.03494516  0.75605381     0.12740
C1330       C  0.85529002  0.05565001  0.75793930     0.62270
F1331       F  0.81986176  0.91464705  0.72186154    -0.22890
F1332       F  0.78169525  0.92326874  0.75611604    -0.20220
F1333       F  0.82839568  0.91202162  0.77300912    -0.19900
F1334       F  0.86334551  0.06709586  0.72911437    -0.19950
F1335       F  0.87967302  0.05814467  0.77813870    -0.20280
F1336       F  0.83175868  0.07391464  0.76948023    -0.22950
C1337       C  0.03313395  0.15291527  0.73508820    -0.05790
C1338       C  0.00938277  0.13533135  0.74881934     0.00140
C1339       C  0.98466429  0.15093000  0.76363107    -0.08430
C1340       C  0.98295482  0.18330644  0.76105966    -0.05810
C1341       C  0.00483100  0.20040714  0.74384125     0.00130
C1342       C  0.03186746  0.18519457  0.73347126    -0.08340
C1343       C  0.05986735  0.20208109  0.72055732     0.62040
H1344       H  0.05264996  0.14145380  0.72451816     0.12730
H1345       H  0.96333913  0.19515659  0.77085644     0.12740
C1346       C  0.95962860  0.13358523  0.78128968     0.62270
F1347       F  0.08658285  0.18767507  0.73003213    -0.22890
F1348       F  0.06133902  0.23213924  0.73094827    -0.20220
F1349       F  0.05908018  0.20177678  0.68863377    -0.19900
F1350       F  0.97278906  0.11226880  0.80090463    -0.19950
F1351       F  0.94044271  0.11857191  0.76085533    -0.20280
F1352       F  0.94176168  0.15325856  0.79905079    -0.22950
C1353       C  0.16231077  0.01475318  0.76629004    -0.05790
C1354       C  0.14855624  0.99324098  0.74650619     0.00140
C1355       C  0.16780614  0.97665226  0.72565598    -0.08430
C1356       C  0.19980761  0.98117652  0.72694909    -0.05810
C1357       C  0.21356735  0.00508676  0.74400772     0.00130
C1358       C  0.19407040  0.02225293  0.76454933    -0.08340
C1359       C  0.20385628  0.04942041  0.78420823     0.62040
H1360       H  0.14746090  0.02770421  0.78179006     0.12730
H1361       H  0.21446454  0.96693531  0.71260030     0.12740
C1362       C  0.15539400  0.95631202  0.69993419     0.62270
F1363       F  0.18389501  0.07375662  0.77958089    -0.22890
F1364       F  0.23295015  0.05999575  0.77739291    -0.20220
F1365       F  0.20253005  0.04102799  0.81504425    -0.19900
F1366       F  0.13264568  0.97167469  0.68408715    -0.19950
F1367       F  0.14391424  0.92909384  0.71204275    -0.20280
F1368       F  0.17804351  0.94876923  0.67848288    -0.22950
C1369       C  0.02197022  0.84258878  0.76968808    -0.05790
C1370       C  0.99764424  0.85760511  0.75463776     0.00140
C1371       C  0.97523630  0.83910687  0.73913793    -0.08430
C1372       C  0.98104605  0.80757322  0.73551353    -0.05810
C1373       C  0.00614246  0.79273398  0.74904648     0.00130
C1374       C  0.02667839  0.81045439  0.76752572    -0.08340
C1375       C  0.05503097  0.79799571  0.78350191     0.62040
H1376       H  0.03862518  0.85650109  0.78203739     0.12730
H1377       H  0.96547799  0.79360323  0.72194826     0.12740
C1378       C  0.94490643  0.85116748  0.72657890     0.62270
F1379       F  0.08060333  0.81525344  0.77476174    -0.22890
F1380       F  0.06115556  0.76768056  0.77646960    -0.20220
F1381       F  0.05105397  0.80052442  0.81513245    -0.19900
F1382       F  0.95022190  0.87242713  0.70328421    -0.19950
F1383       F  0.92786936  0.86391481  0.75046983    -0.20280
F1384       F  0.92681787  0.82798235  0.71416434    -0.22950
C1385       C  0.15969417  0.01982358  0.25779184    -0.05790
C1386       C  0.14490468  0.99329904  0.24650574     0.00140
C1387       C  0.16338225  0.96958214  0.23365592    -0.08430
C1388       C  0.19586993  0.97222077  0.23522750    -0.05810
C1389       C  0.21049450  0.99757354  0.24938290     0.00130
C1390       C  0.19191107  0.02287707  0.25851950    -0.08340
C1391       C  0.20557917  0.05398767  0.26686847     0.62040
H1392       H  0.14594689  0.03835160  0.26697664     0.12730
H1393       H  0.21008198  0.95429208  0.22547840     0.12740
C1394       C  0.14903630  0.94159978  0.21839378     0.62270
F1395       F  0.18315703  0.07613727  0.27161014    -0.22890
F1396       F  0.22413715  0.06406994  0.24280990    -0.20220
F1397       F  0.22239395  0.05200083  0.29357420    -0.19900
F1398       F  0.12716956  0.95090305  0.19731968    -0.19950
F1399       F  0.13524399  0.92293708  0.24050990    -0.20280
F1400       F  0.17082444  0.92423843  0.20272648    -0.22950
C1401       C  0.02621602  0.79979364  0.23698665    -0.05790
C1402       C  0.00320343  0.78417529  0.25427507     0.00140
C1403       C  0.97801341  0.80179797  0.26587179    -0.08430
C1404       C  0.97817138  0.83391837  0.26143482    -0.05810
C1405       C  0.00241552  0.84944257  0.24611608     0.00130
C1406       C  0.02588291  0.83181226  0.23193478    -0.08340
C1407       C  0.05185704  0.84559794  0.21253713     0.62040
H1408       H  0.04631673  0.78767253  0.22927252     0.12730
H1409       H  0.96020344  0.84736027  0.27241217     0.12740
C1410       C  0.95264756  0.78850623  0.28641588     0.62270
F1411       F  0.05607912  0.82815751  0.18616212    -0.22890
F1412       F  0.07883034  0.84529607  0.22932712    -0.20220
F1413       F  0.04581925  0.87538327  0.20306088    -0.19900
F1414       F  0.96263126  0.78754752  0.31661901    -0.19950
F1415       F  0.94434527  0.75936942  0.27721926    -0.20280
F1416       F  0.92633763  0.80642962  0.28538754    -0.22950
C1417       C  0.81165482  0.97211087  0.24035730    -0.05790
C1418       C  0.79822762  0.99621223  0.25771215     0.00140
C1419       C  0.81830543  0.01707302  0.27313893    -0.08430
C1420       C  0.85016841  0.01231292  0.27161054    -0.05810
C1421       C  0.86355599  0.98838854  0.25444526     0.00130
C1422       C  0.84394985  0.96821583  0.23786407    -0.08340
C1423       C  0.85648517  0.94199094  0.21843188     0.62040
H1424       H  0.79664493  0.95506114  0.23010897     0.12730
H1425       H  0.86486358  0.02765023  0.28470927     0.12740
C1426       C  0.80808238  0.04448945  0.29230037     0.62270
F1427       F  0.83477932  0.93158081  0.19759667    -0.22890
F1428       F  0.86427610  0.91762867  0.23734823    -0.20220
F1429       F  0.88215611  0.95155493  0.20171703    -0.19900
F1430       F  0.81205258  0.03793259  0.32329528    -0.19950
F1431       F  0.77797740  0.05238386  0.28755595    -0.20280
F1432       F  0.82581376  0.07003919  0.28458222    -0.22950
C1433       C  0.99850596  0.17534753  0.28293330    -0.05790
C1434       C  0.99187785  0.19307711  0.25631293     0.00140
C1435       C  0.98051432  0.17533442  0.23099736    -0.08430
C1436       C  0.98835735  0.14374699  0.22874271    -0.05810
C1437       C  0.99970445  0.12750623  0.25421968     0.00130
C1438       C  0.00282174  0.14346566  0.28254725    -0.08340
C1439       C  0.00849184  0.12707853  0.31305938     0.62040
H1440       H  0.99902600  0.18600839  0.30520273     0.12730
H1441       H  0.98117224  0.13070980  0.20867641     0.12740
C1442       C  0.95176366  0.18393635  0.21358104     0.62270
F1443       F  0.00982904  0.14707530  0.33793936    -0.22890
F1444       F  0.03612929  0.11146648  0.31195707    -0.20220
F1445       F  0.98447784  0.10691022  0.31868837    -0.19900
F1446       F  0.95809468  0.18545445  0.18225280    -0.19950
F1447       F  0.93930124  0.21115059  0.22420808    -0.20280
F1448       F  0.92943307  0.16140701  0.21815946    -0.22950
C1449       C  0.01805818  0.25798471  0.68493228    -0.05790
C1450       C  0.99627005  0.23859974  0.69979879     0.00140
C1451       C  0.97540848  0.22153226  0.68115472    -0.08430
C1452       C  0.97895674  0.22233931  0.64902007    -0.05810
C1453       C  0.00104344  0.24093298  0.63410786     0.00130
C1454       C  0.02096273  0.25923720  0.65230803    -0.08340
C1455       C  0.04556690  0.27937310  0.63735274     0.62040
H1456       H  0.03383317  0.27108642  0.69900749     0.12730
H1457       H  0.96426814  0.20752874  0.63538201     0.12740
C1458       C  0.94907849  0.20164320  0.69354782     0.62270
F1459       F  0.06081374  0.29725816  0.65887126    -0.22890
F1460       F  0.03223250  0.29885725  0.61603835    -0.20220
F1461       F  0.06711419  0.26108342  0.62254541    -0.19900
F1462       F  0.92362132  0.20430992  0.67466926    -0.19950
F1463       F  0.93956058  0.21025209  0.72265523    -0.20280
F1464       F  0.95812708  0.17114371  0.69400326    -0.22950
C1465       C  0.84706874  0.24387959  0.47300736    -0.05790
C1466       C  0.86360634  0.23413144  0.49895065     0.00140
C1467       C  0.84666432  0.22389773  0.52550859    -0.08430
C1468       C  0.81440546  0.22164691  0.52368938    -0.05810
C1469       C  0.79758700  0.23232957  0.49825210     0.00130
C1470       C  0.81457155  0.24322566  0.47200393    -0.08340
C1471       C  0.80071708  0.25235850  0.44146697     0.62040
H1472       H  0.85978135  0.25161754  0.45271017     0.12730
H1473       H  0.80173943  0.21162382  0.54282053     0.12740
C1474       C  0.86166551  0.21507189  0.55594129     0.62270
F1475       F  0.81055822  0.28171168  0.43349591    -0.22890
F1476       F  0.76924262  0.25229938  0.44216872    -0.20220
F1477       F  0.81034704  0.23194375  0.41885896    -0.19900
F1478       F  0.87993068  0.23913461  0.56618246    -0.19950
F1479       F  0.87915282  0.18875933  0.55214663    -0.20280
F1480       F  0.84009686  0.20905881  0.57902509    -0.22950
C1481       C  0.15945725  0.22061828  0.51991471    -0.05790
C1482       C  0.14578354  0.23688766  0.49567495     0.00140
C1483       C  0.16503453  0.25098962  0.47302692    -0.08430
C1484       C  0.19735858  0.25028216  0.47700935    -0.05810
C1485       C  0.21091322  0.23405617  0.50159613     0.00130
C1486       C  0.19132883  0.21928802  0.52375972    -0.08340
C1487       C  0.20227214  0.20213811  0.55235764     0.62040
H1488       H  0.14505232  0.20804840  0.53619467     0.12730
H1489       H  0.21226097  0.26161299  0.46033185     0.12740
C1490       C  0.15166453  0.26541311  0.44418762     0.62270
F1491       F  0.18283634  0.20820125  0.57718893    -0.22890
F1492       F  0.23134659  0.21082769  0.56138289    -0.20220
F1493       F  0.20181512  0.17080329  0.54670086    -0.19900
F1494       F  0.12977682  0.28709324  0.45223330    -0.19950
F1495       F  0.13809184  0.24275062  0.42637795    -0.20280
F1496       F  0.17410978  0.27979712  0.42625673    -0.22950
C1497       C  0.03007600  0.23279519  0.30362849    -0.05790
C1498       C  0.00172520  0.24016412  0.29040395     0.00140
C1499       C  0.97733579  0.24993642  0.30978635    -0.08430
C1500       C  0.98206089  0.25110320  0.34203131    -0.05810
C1501       C  0.01002449  0.24184496  0.35563105     0.00130
C1502       C  0.03522975  0.23388696  0.33555553    -0.08340
C1503       C  0.06747305  0.22565449  0.34624247     0.62040
H1504       H  0.04745816  0.22307435  0.28849278     0.12730
H1505       H  0.96304046  0.25733774  0.35712462     0.12740
C1506       C  0.94585885  0.25664404  0.29659138     0.62270
F1507       F  0.08760114  0.22039748  0.32177312    -0.22890
F1508       F  0.06662027  0.19890123  0.36365181    -0.20220
F1509       F  0.07969448  0.24999006  0.36274721    -0.19900
F1510       F  0.93359026  0.22999317  0.28420760    -0.19950
F1511       F  0.94846039  0.27876109  0.27366229    -0.20280
F1512       F  0.92556457  0.26737296  0.31894570    -0.22950
C1513       C  0.24009185  0.02689362  0.64884142    -0.05790
C1514       C  0.25625237  0.00214647  0.63568048     0.00140
C1515       C  0.27156948  0.98142031  0.65555124    -0.08430
C1516       C  0.26965233  0.98611161  0.68786343    -0.05810
C1517       C  0.25365396  0.01127867  0.70101988     0.00130
C1518       C  0.23893019  0.03226823  0.68069419    -0.08340
C1519       C  0.22060434  0.06032796  0.69066851     0.62040
H1520       H  0.22718626  0.04225382  0.63415217     0.12730
H1521       H  0.27903735  0.96888938  0.70313327     0.12740
C1522       C  0.28923961  0.95410243  0.64282088     0.62270
F1523       F  0.22973056  0.08559676  0.67319634    -0.22890
F1524       F  0.22471404  0.06800318  0.72107404    -0.20220
F1525       F  0.18958802  0.05485487  0.68581893    -0.19900
F1526       F  0.31014504  0.96401780  0.62054851    -0.19950
F1527       F  0.26899272  0.93324260  0.62982563    -0.20280
F1528       F  0.30543777  0.93899899  0.66567777    -0.22950
C1529       C  0.24946533  0.14891671  0.46723505    -0.05790
C1530       C  0.25852512  0.13129581  0.49285178     0.00140
C1531       C  0.27016907  0.14701584  0.51915445    -0.08430
C1532       C  0.26899805  0.17951446  0.51993602    -0.05810
C1533       C  0.25536484  0.19660026  0.49611321     0.00130
C1534       C  0.24879662  0.18125480  0.46802268    -0.08340
C1535       C  0.24203243  0.19788637  0.43800512     0.62040
H1536       H  0.24204748  0.13755930  0.44635214     0.12730
H1537       H  0.27707712  0.19161863  0.54011818     0.12740
C1538       C  0.28235571  0.12993303  0.54711041     0.62270
F1539       F  0.25837471  0.18427421  0.41405357    -0.22890
F1540       F  0.25085711  0.22848848  0.43873459    -0.20220
F1541       F  0.21089868  0.19580323  0.43178225    -0.19900
F1542       F  0.30187955  0.10654942  0.53778208    -0.19950
F1543       F  0.25802699  0.11764934  0.56404678    -0.20280
F1544       F  0.29878055  0.14931741  0.56635933    -0.22950
C1545       C  0.26326333  0.83983351  0.46753979    -0.05790
C1546       C  0.26004574  0.85214679  0.49747379     0.00140
C1547       C  0.25999761  0.83109547  0.52268447    -0.08430
C1548       C  0.25565175  0.79952311  0.51658525    -0.05810
C1549       C  0.25678193  0.78722986  0.48653868     0.00130
C1550       C  0.26366470  0.80786136  0.46179501    -0.08340
C1551       C  0.27104330  0.79787022  0.42912217     0.62040
H1552       H  0.26532134  0.85550439  0.44808466     0.12730
H1553       H  0.25248887  0.78394628  0.53586629     0.12740
C1554       C  0.26555739  0.84042972  0.55587635     0.62270
F1555       F  0.29201965  0.81802104  0.41551518    -0.22890
F1556       F  0.24449162  0.79805415  0.41179999    -0.20220
F1557       F  0.28434657  0.76914539  0.42852815    -0.19900
F1558       F  0.23794769  0.84822903  0.56995761    -0.19950
F1559       F  0.28635295  0.86466527  0.55716627    -0.20280
F1560       F  0.27826780  0.81634031  0.57241634    -0.22950
C1561       C  0.24118729  0.96211718  0.33796823    -0.05790
C1562       C  0.25526503  0.98544641  0.35536930     0.00140
C1563       C  0.27151453  0.00894984  0.33958968    -0.08430
C1564       C  0.26826668  0.01152268  0.30731138    -0.05810
C1565       C  0.25224997  0.98953351  0.28961790     0.00130
C1566       C  0.24133283  0.96266268  0.30539883    -0.08340
C1567       C  0.23088016  0.93359727  0.28920988     0.62040
H1568       H  0.22983863  0.94312808  0.34978833     0.12730
H1569       H  0.27643952  0.03204550  0.29623744     0.12740
C1570       C  0.29211214  0.03124235  0.35685982     0.62270
F1571       F  0.24007747  0.90788597  0.30567185    -0.22890
F1572       F  0.24397466  0.93125246  0.26012113    -0.20220
F1573       F  0.19908589  0.93308796  0.28741995    -0.19900
F1574       F  0.30897087  0.01553268  0.37879749    -0.19950
F1575       F  0.27449187  0.05355667  0.37123128    -0.20280
F1576       F  0.31293013  0.04557311  0.33717968    -0.22950
C1577       C  0.74572496  0.14181677  0.52465031    -0.05790
C1578       C  0.75257198  0.12583072  0.49732336     0.00140
C1579       C  0.75811386  0.14331685  0.46996135    -0.08430
C1580       C  0.76191148  0.17544359  0.47243687    -0.05810
C1581       C  0.75603331  0.19161475  0.49991011     0.00130
C1582       C  0.74769694  0.17413481  0.52678127    -0.08340
C1583       C  0.74298068  0.18684180  0.55904583     0.62040
H1584       H  0.74013373  0.12879884  0.54536429     0.12730
H1585       H  0.77060895  0.18818741  0.45266232     0.12740
C1586       C  0.76020130  0.12891468  0.43803882     0.62270
F1587       F  0.71338039  0.18000402  0.56916758    -0.22890
F1588       F  0.74723216  0.21799003  0.56082531    -0.20220
F1589       F  0.76374020  0.17319303  0.57887508    -0.19900
F1590       F  0.73655206  0.10774513  0.43432964    -0.19950
F1591       F  0.78839109  0.11467228  0.43402550    -0.20280
F1592       F  0.75724589  0.15086063  0.41498328    -0.22950
C1593       C  0.73556257  0.00199472  0.34964757    -0.05790
C1594       C  0.75598676  0.98141192  0.36363102     0.00140
C1595       C  0.77510965  0.96282749  0.34451052    -0.08430
C1596       C  0.77319673  0.96625196  0.31235700    -0.05810
C1597       C  0.75573750  0.98954796  0.29817530     0.00130
C1598       C  0.73567365  0.00745220  0.31743803    -0.08340
C1599       C  0.71480829  0.03326130  0.30668154     0.62040
H1600       H  0.72074059  0.01567019  0.36451406     0.12730
H1601       H  0.78732658  0.95174166  0.29773367     0.12740
C1602       C  0.79930295  0.94104964  0.35735170     0.62270
F1603       F  0.71673464  0.05798948  0.32675981    -0.22890
F1604       F  0.68466577  0.02274344  0.30659762    -0.20220
F1605       F  0.72237727  0.04431560  0.27785418    -0.19900
F1606       F  0.78517875  0.91775119  0.37420828    -0.19950
F1607       F  0.81947197  0.95724984  0.37589244    -0.20280
F1608       F  0.81672119  0.92729997  0.33424234    -0.22950
C1609       C  0.74826338  0.96276727  0.65939262    -0.05790
C1610       C  0.75730495  0.99009760  0.64427975     0.00140
C1611       C  0.76437540  0.01633325  0.66267331    -0.08430
C1612       C  0.76596065  0.01267832  0.69493380    -0.05810
C1613       C  0.75931496  0.98461583  0.70995417     0.00130
C1614       C  0.74801972  0.95975449  0.69180225    -0.08340
C1615       C  0.73558985  0.92953500  0.70436695     0.62040
H1616       H  0.74120291  0.94317465  0.64563169     0.12730
H1617       H  0.77281820  0.03206157  0.70893090     0.12740
C1618       C  0.77116119  0.04802722  0.64905406     0.62270
F1619       F  0.70811640  0.92237967  0.68997285    -0.22890
F1620       F  0.72947832  0.93049714  0.73547437    -0.20220
F1621       F  0.75652325  0.90633699  0.69831259    -0.19900
F1622       F  0.74764038  0.05654373  0.62948649    -0.19950
F1623       F  0.79895780  0.04766004  0.63312195    -0.20280
F1624       F  0.77325814  0.07046812  0.67166286    -0.22950
C1625       C  0.75023845  0.83404420  0.47809459    -0.05790
C1626       C  0.75044195  0.85017008  0.50625197     0.00140
C1627       C  0.74932474  0.83284936  0.53413936    -0.08430
C1628       C  0.75423963  0.80082388  0.53283049    -0.05810
C1629       C  0.75800287  0.78526683  0.50465225     0.00130
C1630       C  0.75573831  0.80223513  0.47657714    -0.08340
C1631       C  0.76375571  0.78951319  0.44474421     0.62040
H1632       H  0.74903866  0.84663732  0.45657842     0.12730
H1633       H  0.75602874  0.78771268  0.55407916     0.12740
C1634       C  0.74349480  0.84757531  0.56538321     0.62270
F1635       F  0.78451088  0.80914238  0.43003250    -0.22890
F1636       F  0.73735063  0.78762080  0.42724779    -0.20220
F1637       F  0.77750759  0.76099491  0.44570906    -0.19900
F1638       F  0.72232173  0.87117582  0.56278849    -0.19950
F1639       F  0.77080506  0.85897436  0.57707651    -0.20280
F1640       F  0.73148261  0.82631221  0.58621631    -0.22950
C1641       C  0.16244370  0.73938896  0.46717009    -0.05790
C1642       C  0.14946845  0.74232531  0.49687295     0.00140
C1643       C  0.16984354  0.74346538  0.52245773    -0.08430
C1644       C  0.20196138  0.74475789  0.51668892    -0.05810
C1645       C  0.21451688  0.74603215  0.48659036     0.00130
C1646       C  0.19419704  0.74182080  0.46133831    -0.08340
C1647       C  0.20361753  0.73975063  0.42761818     0.62040
H1648       H  0.14759788  0.73600094  0.44755210     0.12730
H1649       H  0.21756828  0.74596121  0.53591408     0.12740
C1650       C  0.15835928  0.74407393  0.55572462     0.62270
F1651       F  0.19130676  0.76436221  0.41165698    -0.22890
F1652       F  0.23490773  0.73968942  0.42320558    -0.20220
F1653       F  0.19208732  0.71274098  0.41517693    -0.19900
F1654       F  0.13722295  0.72054929  0.56063228    -0.19950
F1655       F  0.14483591  0.77219317  0.56201829    -0.20280
F1656       F  0.18210540  0.74005045  0.57648117    -0.22950
C1657       C  0.03379139  0.75880828  0.34782096    -0.05790
C1658       C  0.01169117  0.74081816  0.36350024     0.00140
C1659       C  0.99156636  0.72231315  0.34606305    -0.08430
C1660       C  0.99138186  0.72590041  0.31372174    -0.05810
C1661       C  0.01279509  0.74463282  0.29749174     0.00130
C1662       C  0.03557467  0.76032401  0.31535841    -0.08340
C1663       C  0.06077621  0.78082933  0.30181705     0.62040
H1664       H  0.04930870  0.77295696  0.36125428     0.12730
H1665       H  0.97239729  0.71600178  0.30171115     0.12740
C1666       C  0.97037377  0.69867560  0.36117134     0.62270
F1667       F  0.04959909  0.81029684  0.29771974    -0.22890
F1668       F  0.07171902  0.76946253  0.27423509    -0.20220
F1669       F  0.08579792  0.78254241  0.32140514    -0.19900
F1670       F  0.94484727  0.71288907  0.37385153    -0.19950
F1671       F  0.98593362  0.68295575  0.38403370    -0.20280
F1672       F  0.96028955  0.67719455  0.33991082    -0.22950
C1673       C  0.03269339  0.76259197  0.65407766    -0.05790
C1674       C  0.01194616  0.74178608  0.64082249     0.00140
C1675       C  0.99075087  0.72602694  0.66010407    -0.08430
C1676       C  0.99014729  0.73293590  0.69192560    -0.05810
C1677       C  0.01172796  0.75307850  0.70577867     0.00130
C1678       C  0.03354722  0.76835405  0.68588268    -0.08340
C1679       C  0.05758815  0.79147772  0.69674116     0.62040
H1680       H  0.04767349  0.77581210  0.63894652     0.12730
H1681       H  0.97202874  0.72301657  0.70594903     0.12740
C1682       C  0.96922030  0.70172496  0.64716286     0.62270
F1683       F  0.07913848  0.79852220  0.67392141    -0.22890
F1684       F  0.07365772  0.77939948  0.72110021    -0.20220
F1685       F  0.04367780  0.81884764  0.70491756    -0.19900
F1686       F  0.98621358  0.68016189  0.63087749    -0.19950
F1687       F  0.94816567  0.71518549  0.62762163    -0.20280
F1688       F  0.95306240  0.68640847  0.67034378    -0.22950
C1689       C  0.82165256  0.77171756  0.49641162    -0.05790
C1690       C  0.80314980  0.74745352  0.50834939     0.00140
C1691       C  0.81954907  0.72268087  0.52278277    -0.08430
C1692       C  0.85180579  0.72017736  0.51783592    -0.05810
C1693       C  0.86915875  0.74467583  0.50553138     0.00130
C1694       C  0.85368521  0.77212638  0.49764683    -0.08340
C1695       C  0.87020353  0.80290315  0.49351230     0.62040
H1696       H  0.81134700  0.79187725  0.48678622     0.12730
H1697       H  0.86401229  0.70044456  0.52695199     0.12740
C1698       C  0.80664692  0.70238342  0.54827274     0.62270
F1699       F  0.84998211  0.82741679  0.49129151    -0.22890
F1700       F  0.88825350  0.80283601  0.46707058    -0.20220
F1701       F  0.88805903  0.80824709  0.51913538    -0.19900
F1702       F  0.80333244  0.67244486  0.53794185    -0.19950
F1703       F  0.77910978  0.71341275  0.55942485    -0.20280
F1704       F  0.82676907  0.70209478  0.57292514    -0.22950
C1705       C  0.76538942  0.15148931  0.98312032    -0.05790
C1706       C  0.75053301  0.13557136  0.00732156     0.00140
C1707       C  0.73406480  0.15282633  0.03004616    -0.08430
C1708       C  0.73406771  0.18509310  0.02770644    -0.05810
C1709       C  0.74729618  0.20105939  0.00258149     0.00130
C1710       C  0.76227472  0.18353172  0.97903117    -0.08340
C1711       C  0.77296326  0.19617885  0.94807108     0.62040
H1712       H  0.77743353  0.13827303  0.96555413     0.12730
H1713       H  0.72174362  0.19815795  0.04490948     0.12740
C1714       C  0.71462029  0.13799222  0.05565341     0.62270
F1715       F  0.76358825  0.17669074  0.92463011    -0.22890
F1716       F  0.80478930  0.19806566  0.94740760    -0.20220
F1717       F  0.76071142  0.22458385  0.94184631    -0.19900
F1718       F  0.73315015  0.12083830  0.07491497    -0.19950
F1719       F  0.69211403  0.11940606  0.04285415    -0.20280
F1720       F  0.69962970  0.15959043  0.07383370    -0.22950
C1721       C  0.76828949  0.80509718  0.98524559    -0.05790
C1722       C  0.75522214  0.79070849  0.01173003     0.00140
C1723       C  0.74278434  0.81025760  0.03511002    -0.08430
C1724       C  0.74434482  0.84226288  0.03127836    -0.05810
C1725       C  0.75653516  0.85650294  0.00466188     0.00130
C1726       C  0.76888910  0.83748381  0.98111039    -0.08340
C1727       C  0.78138448  0.85107393  0.95114052     0.62040
H1728       H  0.77488522  0.79075442  0.96605104     0.12730
H1729       H  0.73378230  0.85611249  0.04914818     0.12740
C1730       C  0.72592123  0.79996457  0.06419759     0.62270
F1731       F  0.79560724  0.82906736  0.93295246    -0.22890
F1732       F  0.80281181  0.87386119  0.95747446    -0.20220
F1733       F  0.75755492  0.86343569  0.93423891    -0.19900
F1734       F  0.73999442  0.81281920  0.08971405    -0.19950
F1735       F  0.72553597  0.76888101  0.06824421    -0.20280
F1736       F  0.69569526  0.80993927  0.06316577    -0.22950
C1737       C  0.74898802  0.02400346  0.84740513    -0.05790
C1738       C  0.76380808  0.00058495  0.86403829     0.00140
C1739       C  0.77912179  0.97705724  0.84739371    -0.08430
C1740       C  0.77400729  0.97448476  0.81549112    -0.05810
C1741       C  0.75577312  0.99576720  0.79932778     0.00130
C1742       C  0.74549972  0.02250071  0.81518896    -0.08340
C1743       C  0.72931804  0.04891047  0.79915763     0.62040
H1744       H  0.73813745  0.04272224  0.85987492     0.12730
H1745       H  0.78331555  0.95477053  0.80354189     0.12740
C1746       C  0.80065869  0.95399559  0.86208842     0.62270
F1747       F  0.69810038  0.04268307  0.79749572    -0.22890
F1748       F  0.74130093  0.05358273  0.76979317    -0.20220
F1749       F  0.73319811  0.07612855  0.81534616    -0.19900
F1750       F  0.78712505  0.92507630  0.86189561    -0.19950
F1751       F  0.80811175  0.96170715  0.89210098    -0.20280
F1752       F  0.82787027  0.95294244  0.84515585    -0.22950
C1753       C  0.74239771  0.96430974  0.19140596    -0.05790
C1754       C  0.75216278  0.99086867  0.20705035     0.00140
C1755       C  0.76400175  0.01608052  0.18938278    -0.08430
C1756       C  0.76462060  0.01368423  0.15687533    -0.05810
C1757       C  0.75195102  0.98833745  0.14126847     0.00130
C1758       C  0.74089177  0.96274382  0.15901549    -0.08340
C1759       C  0.72540163  0.93462419  0.14475990     0.62040
H1760       H  0.73354287  0.94535281  0.20516834     0.12730
H1761       H  0.77389056  0.03258154  0.14322145     0.12740
C1762       C  0.77566871  0.04588387  0.20349455     0.62270
F1763       F  0.71605838  0.91328016  0.16682533    -0.22890
F1764       F  0.74571408  0.91991044  0.12493970    -0.20220
F1765       F  0.69933003  0.94356715  0.12896006    -0.19900
F1766       F  0.80644424  0.04280704  0.21068037    -0.19950
F1767       F  0.75917366  0.05364914  0.22964121    -0.20280
F1768       F  0.77296341  0.07022176  0.18296959    -0.22950
C1769       C  0.26751857  0.83240534  0.01963554    -0.05790
C1770       C  0.25579335  0.84685406  0.99320107     0.00140
C1771       C  0.24412199  0.82798324  0.96912474    -0.08430
C1772       C  0.24788373  0.79569051  0.97112980    -0.05810
C1773       C  0.26188814  0.78161136  0.99670528     0.00130
C1774       C  0.26982014  0.80035897  0.02232599    -0.08340
C1775       C  0.28088820  0.78797963  0.05307365     0.62040
H1776       H  0.27581842  0.84634241  0.03857839     0.12730
H1777       H  0.23986761  0.78136146  0.95242418     0.12740
C1778       C  0.22838317  0.84082821  0.94079305     0.62270
F1779       F  0.31272209  0.78898232  0.05376716    -0.22890
F1780       F  0.27087355  0.75833998  0.05841716    -0.20220
F1781       F  0.26940209  0.80572002  0.07711109    -0.19900
F1782       F  0.24981785  0.84428986  0.91715879    -0.19950
F1783       F  0.21454124  0.86883904  0.94685268    -0.20280
F1784       F  0.20551572  0.82083831  0.93100491    -0.22950
C1785       C  0.26422037  0.14103077  0.03084344    -0.05790
C1786       C  0.25209989  0.12677168  0.00448206     0.00140
C1787       C  0.24008050  0.14570855  0.98075331    -0.08430
C1788       C  0.24121027  0.17808478  0.98427928    -0.05810
C1789       C  0.25436532  0.19230970  0.01039862     0.00130
C1790       C  0.26578134  0.17306354  0.03428716    -0.08340
C1791       C  0.28061441  0.18419391  0.06387135     0.62040
H1792       H  0.27419552  0.12715296  0.04890546     0.12730
H1793       H  0.23412630  0.19261260  0.96531418     0.12740
C1794       C  0.22737441  0.13210492  0.95118564     0.62270
F1795       F  0.26583656  0.17062536  0.08895708    -0.22890
F1796       F  0.27908297  0.21544618  0.06784485    -0.20220
F1797       F  0.31129499  0.17564310  0.06388129    -0.19900
F1798       F  0.20633038  0.10900019  0.95812725    -0.19950
F1799       F  0.25119667  0.12013023  0.93354280    -0.20280
F1800       F  0.21254386  0.15407673  0.93356079    -0.22950
C1801       C  0.27715211  0.02228364  0.84416307    -0.05790
C1802       C  0.25971243  0.99753770  0.85595863     0.00140
C1803       C  0.24557164  0.97703479  0.83491482    -0.08430
C1804       C  0.24868365  0.98276032  0.80279791    -0.05810
C1805       C  0.26586896  0.00799039  0.79105765     0.00130
C1806       C  0.28086855  0.02787840  0.81246026    -0.08340
C1807       C  0.30233461  0.05422795  0.80294561     0.62040
H1808       H  0.28969860  0.03663410  0.86011030     0.12730
H1809       H  0.23880240  0.96670093  0.78652115     0.12740
C1810       C  0.22788114  0.94894684  0.84627846     0.62270
F1811       F  0.30771419  0.07434038  0.82714294    -0.22890
F1812       F  0.28988115  0.07143843  0.77949906    -0.20220
F1813       F  0.33046055  0.04252905  0.79367664    -0.19900
F1814       F  0.20549441  0.95777077  0.86740103    -0.19950
F1815       F  0.24787957  0.92862545  0.86024961    -0.20280
F1816       F  0.21351303  0.93360498  0.82233255    -0.22950
C1817       C  0.28235701  0.98308394  0.14825094    -0.05790
C1818       C  0.25320376  0.98463756  0.13516136     0.00140
C1819       C  0.22847646  0.99591967  0.15315380    -0.08430
C1820       C  0.23384713  0.00453656  0.18423418    -0.05810
C1821       C  0.26322567  0.00192551  0.19810472     0.00130
C1822       C  0.28836568  0.99659921  0.17693097    -0.08340
C1823       C  0.31771061  0.01598660  0.17723465     0.62040
H1824       H  0.30166457  0.97690434  0.13338871     0.12730
H1825       H  0.21524878  0.01516397  0.19664973     0.12740
C1826       C  0.19654545  0.99799264  0.13949712     0.62270
F1827       F  0.32868891  0.02210995  0.14761086    -0.22890
F1828       F  0.34090867  0.00122939  0.19279634    -0.20220
F1829       F  0.31151167  0.04422237  0.19009625    -0.19900
F1830       F  0.18788704  0.96933813  0.12849365    -0.19950
F1831       F  0.19668921  0.01890700  0.11534887    -0.20280
F1832       F  0.17480247  0.00721752  0.16116783    -0.22950
C1833       C  0.48314396  0.14202439  0.26446255    -0.05790
C1834       C  0.50605739  0.12724036  0.24686154     0.00140
C1835       C  0.52672362  0.14579857  0.22885670    -0.08430
C1836       C  0.52587950  0.17785897  0.23252045    -0.05810
C1837       C  0.50182044  0.19282090  0.24820405     0.00130
C1838       C  0.47904570  0.17429100  0.26345780    -0.08340
C1839       C  0.44906061  0.18644392  0.27675840     0.62040
H1840       H  0.46654663  0.12789871  0.27703337     0.12730
H1841       H  0.54284374  0.19186427  0.22043833     0.12740
C1842       C  0.54721460  0.13336596  0.20296187     0.62270
F1843       F  0.42498551  0.16687015  0.26921028    -0.22890
F1844       F  0.44185012  0.21499573  0.26518181    -0.20220
F1845       F  0.45100524  0.18794471  0.30858496    -0.19900
F1846       F  0.53154316  0.11148937  0.18599455    -0.19950
F1847       F  0.57380928  0.12102672  0.21497861    -0.20280
F1848       F  0.55594033  0.15638017  0.18236214    -0.22950
C1849       C  0.48507261  0.79661070  0.25694859    -0.05790
C1850       C  0.51171055  0.78330339  0.24385879     0.00140
C1851       C  0.53745127  0.80271777  0.23725681    -0.08430
C1852       C  0.53435781  0.83469712  0.24140275    -0.05810
C1853       C  0.50669132  0.84819517  0.25174517     0.00130
C1854       C  0.48261267  0.82850024  0.26228902    -0.08340
C1855       C  0.45415965  0.83968511  0.27939771     0.62040
H1856       H  0.46552811  0.78199105  0.26241508     0.12730
H1857       H  0.55328939  0.84959982  0.23457842     0.12740
C1858       C  0.56803999  0.79042629  0.22518422     0.62270
F1859       F  0.44798198  0.82042282  0.30426562    -0.22890
F1860       F  0.42918674  0.83905612  0.25979049    -0.20220
F1861       F  0.45794362  0.86910668  0.29100862    -0.19900
F1862       F  0.56465806  0.77892455  0.19572786    -0.19950
F1863       F  0.57867117  0.76763550  0.24453083    -0.20280
F1864       F  0.59054408  0.81314828  0.22377788    -0.22950
C1865       C  0.35094001  0.01672815  0.26076071    -0.05790
C1866       C  0.36407001  0.98766872  0.25525291     0.00140
C1867       C  0.34392518  0.96230736  0.24953288    -0.08430
C1868       C  0.31240562  0.96823460  0.24477321    -0.05810
C1869       C  0.30054650  0.99830456  0.24456029     0.00130
C1870       C  0.32020158  0.02319585  0.25356563    -0.08340
C1871       C  0.31157195  0.05720628  0.25375455     0.62040
H1872       H  0.36559092  0.03571879  0.26765396     0.12730
H1873       H  0.29710497  0.94951276  0.23856149     0.12740
C1874       C  0.35516682  0.92937325  0.24624598     0.62270
F1875       F  0.31439274  0.06920093  0.28309679    -0.22890
F1876       F  0.28200332  0.06213704  0.24376072    -0.20220
F1877       F  0.33164065  0.07366756  0.23483837    -0.19900
F1878       F  0.37561955  0.92250962  0.26956636    -0.19950
F1879       F  0.36932179  0.92552696  0.21773681    -0.20280
F1880       F  0.33104484  0.90841289  0.24832052    -0.22950
C1881       C  0.69217222  0.01485143  0.23160263    -0.05790
C1882       C  0.70856838  0.99078056  0.24543320     0.00140
C1883       C  0.69168558  0.96545450  0.25798903    -0.08430
C1884       C  0.65910301  0.96675361  0.25835606    -0.05810
C1885       C  0.64277597  0.99115284  0.24466787     0.00130
C1886       C  0.65990372  0.01579632  0.23078449    -0.08340
C1887       C  0.64509443  0.04265276  0.21375188     0.62040
H1888       H  0.70534922  0.03317558  0.22074944     0.12730
H1889       H  0.64618443  0.94758604  0.26817995     0.12740
C1890       C  0.70610631  0.93573524  0.26925205     0.62270
F1891       F  0.66672964  0.06284730  0.20129860    -0.22890
F1892       F  0.62685084  0.05941133  0.23394307    -0.20220
F1893       F  0.62764808  0.03170655  0.18949216    -0.19900
F1894       F  0.70090088  0.93275354  0.30069544    -0.19950
F1895       F  0.73739609  0.93413330  0.26354287    -0.20280
F1896       F  0.69249412  0.91103372  0.25437375    -0.22950
C1897       C  0.65730488  0.25282018  0.02571488    -0.05790
C1898       C  0.64168615  0.24146589  0.99977546     0.00140
C1899       C  0.65941739  0.23217411  0.97339943    -0.08430
C1900       C  0.69170209  0.23376126  0.97488038    -0.05810
C1901       C  0.70731445  0.24304695  0.00146625     0.00130
C1902       C  0.68981101  0.25337463  0.02744058    -0.08340
C1903       C  0.70434287  0.26520209  0.05698593     0.62040
H1904       H  0.64367311  0.26075451  0.04519576     0.12730
H1905       H  0.70540749  0.22582659  0.95552299     0.12740
C1906       C  0.64531633  0.21876500  0.94416910     0.62270
F1907       F  0.68356855  0.26437691  0.08148710    -0.22890
F1908       F  0.71357854  0.29541207  0.05287816    -0.20220
F1909       F  0.72931200  0.24767536  0.06534220    -0.19900
F1910       F  0.62558136  0.23989470  0.93102182    -0.19950
F1911       F  0.62962425  0.19175484  0.95118207    -0.20280
F1912       F  0.66739265  0.21159688  0.92201163    -0.22950
C1913       C  0.34609562  0.25736098  0.01564932    -0.05790
C1914       C  0.36138378  0.23606544  0.99662100     0.00140
C1915       C  0.34370578  0.21300019  0.98160183    -0.08430
C1916       C  0.31161298  0.21418413  0.98399256    -0.05810
C1917       C  0.29601686  0.23360201  0.00487154     0.00130
C1918       C  0.31396996  0.25568335  0.02153661    -0.08340
C1919       C  0.30215163  0.27692877  0.04680509     0.62040
H1920       H  0.35986290  0.27419980  0.02793776     0.12730
H1921       H  0.29831310  0.19827068  0.97025176     0.12740
C1922       C  0.35782333  0.18505392  0.96572794     0.62270
F1923       F  0.32024287  0.27363438  0.07276290    -0.22890
F1924       F  0.27224563  0.27098665  0.05579109    -0.20220
F1925       F  0.30430800  0.30713475  0.03673882    -0.19900
F1926       F  0.37958061  0.17205681  0.98470155    -0.19950
F1927       F  0.37106953  0.19335367  0.93779189    -0.20280
F1928       F  0.33608077  0.16235848  0.95984501    -0.22950
C1929       C  0.48356097  0.25775969  0.84810037    -0.05790
C1930       C  0.50894291  0.24264706  0.86106670     0.00140
C1931       C  0.53102462  0.22896343  0.84062920    -0.08430
C1932       C  0.52523049  0.22932861  0.80872833    -0.05810
C1933       C  0.49809393  0.24119130  0.79610375     0.00130
C1934       C  0.47737505  0.25712721  0.81616068    -0.08340
C1935       C  0.44800425  0.27294330  0.80629120     0.62040
H1936       H  0.46715143  0.26881151  0.86352372     0.12730
H1937       H  0.54178619  0.21916695  0.79301229     0.12740
C1938       C  0.56027635  0.21303167  0.85127082     0.62270
F1939       F  0.42345107  0.26222883  0.82401620    -0.22890
F1940       F  0.44099266  0.26792316  0.77589753    -0.20220
F1941       F  0.45105271  0.30433686  0.81089336    -0.19900
F1942       F  0.55316225  0.18963261  0.87190990    -0.19950
F1943       F  0.57976969  0.23443493  0.86449263    -0.20280
F1944       F  0.57643742  0.19967771  0.82703041    -0.22950
C1945       C  0.51627463  0.25167706  0.15735006    -0.05790
C1946       C  0.49202672  0.23637282  0.14240732     0.00140
C1947       C  0.47017618  0.21960149  0.16091605    -0.08430
C1948       C  0.47238978  0.22131102  0.19320903    -0.05810
C1949       C  0.49782311  0.23445569  0.20800067     0.00130
C1950       C  0.52097752  0.24904189  0.18944262    -0.08340
C1951       C  0.55190144  0.26000646  0.20124358     0.62040
H1952       H  0.53347973  0.26351882  0.14329291     0.12730
H1953       H  0.45508906  0.21000665  0.20747262     0.12740
C1954       C  0.44605115  0.19759057  0.14799742     0.62270
F1955       F  0.57513681  0.25106627  0.18105255    -0.22890
F1956       F  0.55876186  0.24765395  0.22959779    -0.20220
F1957       F  0.55202130  0.29180490  0.20315244    -0.19900
F1958       F  0.45910350  0.17854416  0.12594356    -0.19950
F1959       F  0.42193806  0.21406327  0.13569870    -0.20280
F1960       F  0.43370636  0.17845216  0.17066513    -0.22950
C1961       C  0.65929754  0.97262499  0.77439425    -0.05790
C1962       C  0.64698456  0.99283465  0.75238747     0.00140
C1963       C  0.66727062  0.01015249  0.73335469    -0.08430
C1964       C  0.69925261  0.00788248  0.73833135    -0.05810
C1965       C  0.71171381  0.98797484  0.76078814     0.00130
C1966       C  0.69111064  0.96929320  0.77863080    -0.08340
C1967       C  0.70150710  0.94669535  0.80338001     0.62040
H1968       H  0.64363243  0.95985057  0.78933231     0.12730
H1969       H  0.71454032  0.02305675  0.72566354     0.12740
C1970       C  0.65535672  0.03082505  0.70786710     0.62270
F1971       F  0.70614976  0.96225057  0.83078432    -0.22890
F1972       F  0.72823336  0.93176580  0.79475055    -0.20220
F1973       F  0.67942659  0.92407514  0.80868214    -0.19900
F1974       F  0.64064395  0.05604506  0.72049351    -0.19950
F1975       F  0.63484464  0.01458912  0.68973641    -0.20280
F1976       F  0.67901956  0.04148426  0.68890198    -0.22950
C1977       C  0.35612847  0.01735454  0.72999556    -0.05790
C1978       C  0.36787603  0.99036854  0.74349578     0.00140
C1979       C  0.34638090  0.96790550  0.75487881    -0.08430
C1980       C  0.31495016  0.97555440  0.75593782    -0.05810
C1981       C  0.30378199  0.00431763  0.74652571     0.00130
C1982       C  0.32453496  0.02494467  0.73117677    -0.08340
C1983       C  0.31597254  0.05575755  0.71715824     0.62040
H1984       H  0.37226411  0.03390439  0.72008998     0.12730
H1985       H  0.29847125  0.95934792  0.76569250     0.12740
C1986       C  0.35541820  0.93627094  0.76683701     0.62270
F1987       F  0.33375791  0.07882156  0.73014150    -0.22890
F1988       F  0.28555097  0.06337677  0.72157440    -0.20220
F1989       F  0.32191718  0.05497491  0.68570893    -0.19900
F1990       F  0.37383448  0.93916019  0.79257276    -0.19950
F1991       F  0.37040549  0.92020423  0.74363900    -0.20280
F1992       F  0.33007460  0.91867393  0.77564708    -0.22950
C1993       C  0.47180516  0.14815506  0.75703050    -0.05790
C1994       C  0.49997037  0.13462535  0.74811998     0.00140
C1995       C  0.52498373  0.15440381  0.74000285    -0.08430
C1996       C  0.52147437  0.18656001  0.74362884    -0.05810
C1997       C  0.49394622  0.19962406  0.75500007     0.00130
C1998       C  0.46833046  0.18005415  0.76078391    -0.08340
C1999       C  0.43736160  0.19239176  0.77153275     0.62040
H2000       H  0.45243793  0.13363692  0.76288043     0.12730
H2001       H  0.54079817  0.20175279  0.73885539     0.12740
C2002       C  0.55544440  0.14194918  0.72798804     0.62270
F2003       F  0.41480908  0.16970146  0.77255788    -0.22890
F2004       F  0.42749510  0.21494489  0.75146803    -0.20220
F2005       F  0.43999055  0.20429373  0.80090242    -0.19900
F2006       F  0.55020823  0.12019859  0.70527980    -0.19950
F2007       F  0.57160220  0.12867956  0.75190941    -0.20280
F2008       F  0.57367632  0.16505945  0.71520975    -0.22950
C2009       C  0.53328603  0.84386713  0.72957749    -0.05790
C2010       C  0.50816057  0.85527155  0.74634421     0.00140
C2011       C  0.48833556  0.83393884  0.76180773    -0.08430
C2012       C  0.49407213  0.80215204  0.75834805    -0.05810
C2013       C  0.52173829  0.79081425  0.74523430     0.00130
C2014       C  0.54234957  0.81289902  0.73180706    -0.08340
C2015       C  0.57524657  0.80666687  0.72257467     0.62040
H2016       H  0.54849745  0.86024023  0.71802736     0.12730
H2017       H  0.47922519  0.78614645  0.77039842     0.12740
C2018       C  0.46345851  0.84408850  0.78465643     0.62270
F2019       F  0.59420315  0.83066015  0.73180518    -0.22890
F2020       F  0.57683933  0.80467319  0.69080378    -0.20220
F2021       F  0.58632761  0.78050461  0.73635793    -0.19900
F2022       F  0.44107193  0.86072273  0.76953851    -0.19950
F2023       F  0.47651789  0.86198356  0.80757247    -0.20280
F2024       F  0.44907180  0.81932673  0.79912176    -0.22950
C2025       C  0.35311603  0.74585406  0.96759869    -0.05790
C2026       C  0.36874961  0.73676479  0.99439718     0.00140
C2027       C  0.35088805  0.72555641  0.01992164    -0.08430
C2028       C  0.31850641  0.72807110  0.01898380    -0.05810
C2029       C  0.30324076  0.74021737  0.99325989     0.00130
C2030       C  0.32081812  0.74665132  0.96616758    -0.08340
C2031       C  0.30689523  0.75389079  0.93500688     0.62040
H2032       H  0.36621310  0.75305895  0.94736970     0.12730
H2033       H  0.30500643  0.72075953  0.03883077     0.12740
C2034       C  0.36460405  0.71180408  0.04892909     0.62270
F2035       F  0.30958372  0.78510716  0.92908869    -0.22890
F2036       F  0.27637852  0.74523462  0.93334215    -0.20220
F2037       F  0.32247724  0.73786334  0.91209374    -0.19900
F2038       F  0.36714715  0.73444858  0.07123234    -0.19950
F2039       F  0.39310809  0.69879738  0.04317511    -0.20280
F2040       F  0.34565349  0.68866012  0.06052033    -0.22950
C2041       C  0.66218054  0.72814025  0.01079231    -0.05790
C2042       C  0.64958898  0.74963184  0.99062514     0.00140
C2043       C  0.66967120  0.77059042  0.97509092    -0.08430
C2044       C  0.70154911  0.76781209  0.97959801    -0.05810
C2045       C  0.71437963  0.74910514  0.00286613     0.00130
C2046       C  0.69352414  0.72876367  0.01908294    -0.08340
C2047       C  0.70074768  0.70831762  0.04629363     0.62040
H2048       H  0.64649267  0.71236768  0.02257877     0.12730
H2049       H  0.71674042  0.78214327  0.96580879     0.12740
C2050       C  0.65828408  0.79753602  0.95576005     0.62270
F2051       F  0.67846100  0.71172785  0.06916762    -0.22890
F2052       F  0.72827402  0.71526699  0.05958240    -0.20220
F2053       F  0.70051146  0.67797519  0.03665289    -0.19900
F2054       F  0.63564040  0.81339968  0.97172367    -0.19950
F2055       F  0.64693476  0.78702669  0.92800602    -0.20280
F2056       F  0.68166820  0.81846040  0.94907739    -0.22950
C2057       C  0.52529707  0.72403642  0.14958573    -0.05790
C2058       C  0.50538807  0.74410691  0.13411535     0.00140
C2059       C  0.48721750  0.76492886  0.15181530    -0.08430
C2060       C  0.48835693  0.76330023  0.18407108    -0.05810
C2061       C  0.50933594  0.74453363  0.19985979     0.00130
C2062       C  0.52894515  0.72494556  0.18199208    -0.08340
C2063       C  0.55579259  0.70679412  0.19463967     0.62040
H2064       H  0.53991491  0.70900628  0.13589537     0.12730
H2065       H  0.47323784  0.77793965  0.19749845     0.12740
C2066       C  0.46861074  0.79078917  0.13738790     0.62270
F2067       F  0.58191761  0.71259495  0.17688556    -0.22890
F2068       F  0.54910652  0.67564702  0.19318404    -0.20220
F2069       F  0.56278355  0.71456707  0.22455371    -0.19900
F2070       F  0.44402691  0.77883565  0.12116271    -0.19950
F2071       F  0.48749397  0.80783934  0.11792939    -0.20280
F2072       F  0.45681644  0.81089362  0.15929343    -0.22950
C2073       C  0.53679097  0.77949301  0.80715127    -0.05790
C2074       C  0.53534217  0.75275082  0.78872587     0.00140
C2075       C  0.53730678  0.72447511  0.80538956    -0.08430
C2076       C  0.52667100  0.72366191  0.83645013    -0.05810
C2077       C  0.52143051  0.75094943  0.85306587     0.00130
C2078       C  0.52921784  0.77943043  0.83863369    -0.08340
C2079       C  0.52958533  0.80997436  0.85584180     0.62040
H2080       H  0.54299192  0.80119113  0.79652702     0.12730
H2081       H  0.52628128  0.70192190  0.84885234     0.12740
C2082       C  0.55980344  0.69930960  0.79661893     0.62270
F2083       F  0.53525269  0.83483213  0.83642332    -0.22890
F2084       F  0.55255362  0.80990263  0.87773211    -0.20220
F2085       F  0.50128776  0.81464271  0.86979264    -0.19900
F2086       F  0.57544071  0.70592975  0.76949200    -0.19950
F2087       F  0.58170493  0.69670424  0.81952428    -0.20280
F2088       F  0.54483291  0.67128872  0.79433284    -0.22950
C2089       C  0.85638514  0.74510150  0.03168287    -0.05790
C2090       C  0.87094471  0.74872000  0.00271394     0.00140
C2091       C  0.85219204  0.75566816  0.97704021    -0.08430
C2092       C  0.82016052  0.75074737  0.97963587    -0.05810
C2093       C  0.80546466  0.74486739  0.00820804     0.00130
C2094       C  0.82406857  0.74472932  0.03515227    -0.08340
C2095       C  0.81187000  0.74426708  0.06804266     0.62040
H2096       H  0.87035715  0.74201834  0.05207919     0.12730
H2097       H  0.80653627  0.75204871  0.95893268     0.12740
C2098       C  0.86442159  0.76970150  0.94723526     0.62270
F2099       F  0.82456688  0.76867200  0.08412908    -0.22890
F2100       F  0.82037428  0.71708928  0.08232986    -0.20220
F2101       F  0.78037639  0.74716616  0.06973386    -0.19900
F2102       F  0.86478582  0.74768567  0.92419210    -0.19950
F2103       F  0.89356997  0.78222879  0.95063455    -0.20280
F2104       F  0.84540505  0.79347666  0.93825220    -0.22950
C2105       C  0.19956926  0.75464149  0.01505272    -0.05790
C2106       C  0.21306420  0.73205022  0.99572219     0.00140
C2107       C  0.19334134  0.71526189  0.97557949    -0.08430
C2108       C  0.16138216  0.71907864  0.97830689    -0.05810
C2109       C  0.14805719  0.74050904  0.99854128     0.00130
C2110       C  0.16746474  0.75980598  0.01604598    -0.08340
C2111       C  0.15443611  0.78617536  0.03495309     0.62040
H2112       H  0.21410223  0.76755357  0.03049635     0.12730
H2113       H  0.14640510  0.70438068  0.96484618     0.12740
C2114       C  0.20485660  0.69288860  0.95112305     0.62270
F2115       F  0.17754113  0.80471331  0.04678310    -0.22890
F2116       F  0.13702377  0.77491196  0.05938864    -0.20220
F2117       F  0.13604057  0.80429368  0.01642366    -0.19900
F2118       F  0.21031411  0.66448122  0.96437628    -0.19950
F2119       F  0.23128600  0.70401108  0.93697151    -0.20280
F2120       F  0.18329968  0.68870252  0.92807821    -0.22950
C2121       C  0.02787277  0.72369656  0.81034860    -0.05790
C2122       C  0.00499045  0.74130330  0.79602822     0.00140
C2123       C  0.98584831  0.76021142  0.81511168    -0.08430
C2124       C  0.99178303  0.76156008  0.84707646    -0.05810
C2125       C  0.01367262  0.74261749  0.86121590     0.00130
C2126       C  0.03159953  0.72247690  0.84236074    -0.08340
C2127       C  0.05340113  0.69813062  0.85489938     0.62040
H2128       H  0.04295429  0.71003305  0.79589193     0.12730
H2129       H  0.97736774  0.77594540  0.86167566     0.12740
C2130       C  0.95742872  0.77728853  0.80452113     0.62270
F2131       F  0.06270291  0.67747636  0.83231087    -0.22890
F2132       F  0.03884124  0.68105193  0.87772337    -0.20220
F2133       F  0.07968633  0.71196681  0.86619383    -0.19900
F2134       F  0.94906582  0.76988756  0.77491160    -0.19950
F2135       F  0.96263033  0.80868341  0.80641083    -0.20280
F2136       F  0.93270473  0.76980844  0.82363168    -0.22950
C2137       C  0.97847088  0.73041681  0.15683565    -0.05790
C2138       C  0.00519098  0.74017655  0.14096731     0.00140
C2139       C  0.03132329  0.74845324  0.15849724    -0.08430
C2140       C  0.03037586  0.74412977  0.19075237    -0.05810
C2141       C  0.00386667  0.73389281  0.20689069     0.00130
C2142       C  0.97703383  0.72733451  0.18919103    -0.08340
C2143       C  0.94739515  0.71411057  0.20262960     0.62040
H2144       H  0.95868556  0.72326562  0.14371970     0.12730
H2145       H  0.05142303  0.74722766  0.20321358     0.12740
C2146       C  0.06057306  0.76118950  0.14353171     0.62270
F2147       F  0.92248779  0.72006802  0.18377572    -0.22890
F2148       F  0.94074156  0.72704315  0.23079824    -0.20220
F2149       F  0.95004322  0.68251070  0.20537676    -0.19900
F2150       F  0.05322343  0.78393935  0.12243207    -0.19950
F2151       F  0.07649737  0.73788157  0.12876768    -0.20280
F2152       F  0.08006750  0.77407980  0.16514612    -0.22950
C2153       C  0.84817456  0.26261183  0.97382781    -0.05790
C2154       C  0.86289849  0.24444577  0.99599637     0.00140
C2155       C  0.84457673  0.22659319  0.01667102    -0.08430
C2156       C  0.81217920  0.22954959  0.01578013    -0.05810
C2157       C  0.79748417  0.24951396  0.99482141     0.00130
C2158       C  0.81607162  0.26493204  0.97216213    -0.08340
C2159       C  0.80411791  0.28476575  0.94587084     0.62040
H2160       H  0.86200461  0.27613611  0.95774651     0.12730
H2161       H  0.79831889  0.21773684  0.03308120     0.12740
C2162       C  0.85856527  0.20599506  0.04108175     0.62270
F2163       F  0.82010205  0.27794939  0.91889333    -0.22890
F2164       F  0.80883922  0.31551060  0.95281895    -0.20220
F2165       F  0.77343998  0.28005234  0.93976121    -0.19900
F2166       F  0.86513606  0.22325199  0.06702756    -0.19950
F2167       F  0.88526675  0.19231715  0.03018197    -0.20280
F2168       F  0.83827130  0.18266921  0.04956936    -0.22950
C2169       C  0.96926072  0.25044587  0.84060706    -0.05790
C2170       C  0.99720824  0.24314593  0.85512555     0.00140
C2171       C  0.02303421  0.23551970  0.83619001    -0.08430
C2172       C  0.02035287  0.23788137  0.80378478    -0.05810
C2173       C  0.99318856  0.24831148  0.78970458     0.00130
C2174       C  0.96686662  0.25376134  0.80846369    -0.08340
C2175       C  0.93631052  0.26374853  0.79498413     0.62040
H2176       H  0.94925218  0.25551929  0.85453302     0.12730
H2177       H  0.04023837  0.23351779  0.78917409     0.12740
C2178       C  0.05371880  0.22597451  0.84970421     0.62270
F2179       F  0.91311560  0.26519964  0.81714691    -0.22890
F2180       F  0.92704954  0.24294570  0.77285658    -0.20220
F2181       F  0.93933770  0.29267822  0.78203062    -0.19900
F2182       F  0.04908126  0.20422067  0.87271789    -0.19950
F2183       F  0.06859827  0.25144595  0.86175840    -0.20280
F2184       F  0.07291467  0.21312855  0.82750398    -0.22950
C2185       C  0.19361886  0.24581229  0.96958947    -0.05790
C2186       C  0.20587502  0.23813927  0.99835872     0.00140
C2187       C  0.18547591  0.22805150  0.02226028    -0.08430
C2188       C  0.15358178  0.22722293  0.01634308    -0.05810
C2189       C  0.14096213  0.23831692  0.98864970     0.00130
C2190       C  0.16174222  0.24716794  0.96422162    -0.08340
C2191       C  0.15170790  0.25951324  0.93297094     0.62040
H2192       H  0.20970239  0.25303984  0.95171336     0.12730
H2193       H  0.13790926  0.21956278  0.03448095     0.12740
C2194       C  0.19592878  0.21881687  0.05433610     0.62270
F2195       F  0.17648209  0.26764009  0.91415711    -0.22890
F2196       F  0.13425014  0.28583269  0.93685633    -0.20220
F2197       F  0.13542187  0.23698922  0.91746787    -0.19900
F2198       F  0.22187652  0.23479370  0.06316979    -0.19950
F2199       F  0.20187049  0.18758119  0.05478296    -0.20280
F2200       F  0.17323466  0.22486025  0.07619702    -0.22950
C2201       C  0.02481043  0.22733523  0.15027960    -0.05790
C2202       C  0.99869458  0.23863492  0.13487978     0.00140
C2203       C  0.97226368  0.24678987  0.15300811    -0.08430
C2204       C  0.97453844  0.24627812  0.18537063    -0.05810
C2205       C  0.00122989  0.23666613  0.20077895     0.00130
C2206       C  0.02660445  0.22622520  0.18283638    -0.08340
C2207       C  0.05686134  0.21590119  0.19656805     0.62040
H2208       H  0.04477499  0.22047637  0.13675547     0.12730
H2209       H  0.95641887  0.25665229  0.19917220     0.12740
C2210       C  0.94209580  0.25799206  0.13930128     0.62270
F2211       F  0.06427850  0.18711084  0.18511736    -0.22890
F2212       F  0.05593183  0.21386350  0.22839280    -0.20220
F2213       F  0.07985364  0.23655149  0.18813371    -0.19900
F2214       F  0.93122315  0.23670405  0.11824256    -0.19950
F2215       F  0.94651454  0.28631906  0.12515813    -0.20280
F2216       F  0.91929684  0.26162058  0.16162531    -0.22950
C2217       C  0.84910608  0.46983744  0.26208159    -0.05790
C2218       C  0.86335198  0.49359967  0.24500357     0.00140
C2219       C  0.84446599  0.51320718  0.22676970    -0.08430
C2220       C  0.81244003  0.50860885  0.22756540    -0.05810
C2221       C  0.79834837  0.48315137  0.24207879     0.00130
C2222       C  0.81726408  0.46331565  0.26008297    -0.08340
C2223       C  0.80636282  0.43430476  0.27647222     0.62040
H2224       H  0.86354682  0.45465058  0.27556898     0.12730
H2225       H  0.79796584  0.52467267  0.21543326     0.12740
C2226       C  0.85700694  0.53778043  0.20471574     0.62270
F2227       F  0.82506622  0.40989121  0.26809343    -0.22890
F2228       F  0.77667386  0.42625501  0.26931519    -0.20220
F2229       F  0.80830306  0.43849802  0.30806657    -0.19900
F2230       F  0.87999657  0.52569451  0.18609952    -0.19950
F2231       F  0.86799749  0.56260598  0.22126664    -0.20280
F2232       F  0.83450833  0.54883734  0.18513296    -0.22950
C2233       C  0.15884987  0.51277967  0.23048029    -0.05790
C2234       C  0.14399195  0.48957079  0.24764348     0.00140
C2235       C  0.16226779  0.46833351  0.26399087    -0.08430
C2236       C  0.19467089  0.47013760  0.26084759    -0.05810
C2237       C  0.20989376  0.49168916  0.24145424     0.00130
C2238       C  0.19106506  0.51436175  0.22682179    -0.08340
C2239       C  0.20336262  0.53974613  0.20584327     0.62040
H2240       H  0.14476153  0.52888035  0.21783078     0.12730
H2241       H  0.20776523  0.45257304  0.27169450     0.12740
C2242       C  0.14843428  0.44192462  0.28262433     0.62270
F2243       F  0.18243568  0.56355321  0.20275274    -0.22890
F2244       F  0.20915078  0.52806533  0.17673009    -0.20220
F2245       F  0.22956530  0.55255967  0.21783807    -0.19900
F2246       F  0.14543266  0.41638976  0.26379686    -0.19950
F2247       F  0.11991837  0.44948534  0.29491964    -0.20280
F2248       F  0.16730386  0.43433186  0.30704223    -0.22950
C2249       C  0.03591438  0.64404872  0.24487228    -0.05790
C2250       C  0.00891818  0.62772306  0.25286678     0.00140
C2251       C  0.98260545  0.64471171  0.26206152    -0.08430
C2252       C  0.98336787  0.67704022  0.25932922    -0.05810
C2253       C  0.00986124  0.69352188  0.24974335     0.00130
C2254       C  0.03718111  0.67640263  0.24392835    -0.08340
C2255       C  0.06765249  0.69074558  0.23430411     0.62040
H2256       H  0.05627727  0.63157507  0.23786156     0.12730
H2257       H  0.96210677  0.68924861  0.26274563     0.12740
C2258       C  0.95316973  0.62914189  0.27350537     0.62270
F2259       F  0.09199196  0.67377054  0.24570857    -0.22890
F2260       F  0.07069185  0.72004183  0.24580896    -0.20220
F2261       F  0.06992857  0.69126356  0.20241578    -0.19900
F2262       F  0.96015023  0.60602995  0.29433645    -0.19950
F2263       F  0.93725577  0.61682116  0.24888974    -0.20280
F2264       F  0.93387108  0.64977570  0.28839175    -0.22950
C2265       C  0.00901289  0.33149157  0.26470081    -0.05790
C2266       C  0.00247703  0.34847206  0.23805215     0.00140
C2267       C  0.00405513  0.33331857  0.20903643    -0.08430
C2268       C  0.00826890  0.30137623  0.20846935    -0.05810
C2269       C  0.01085072  0.28336106  0.23556437     0.00130
C2270       C  0.01912118  0.30071084  0.26225121    -0.08340
C2271       C  0.04985298  0.29575636  0.27779869     0.62040
H2272       H  0.01303604  0.34400730  0.28597623     0.12730
H2273       H  0.01044473  0.29077765  0.18617464     0.12740
C2274       C  0.00260967  0.35049312  0.17849437     0.62270
F2275       F  0.06913773  0.32070121  0.27191695    -0.22890
F2276       F  0.06481891  0.27010112  0.26641858    -0.20220
F2277       F  0.04572790  0.29380694  0.30943881    -0.19900
F2278       F  0.02758909  0.37014843  0.17617596    -0.19950
F2279       F  0.97545661  0.36678937  0.17682034    -0.20280
F2280       F  0.00369690  0.33099583  0.15319518    -0.22950
C2281       C  0.23469817  0.51507276  0.84490440    -0.05790
C2282       C  0.25488838  0.49346884  0.85767632     0.00140
C2283       C  0.27349429  0.47551606  0.83768866    -0.08430
C2284       C  0.26987386  0.47877931  0.80543969    -0.05810
C2285       C  0.24888536  0.49993252  0.79263310     0.00130
C2286       C  0.23182263  0.51932811  0.81300688    -0.08340
C2287       C  0.20913041  0.54378121  0.80243148     0.62040
H2288       H  0.22006590  0.52838574  0.86023130     0.12730
H2289       H  0.28245422  0.46365321  0.79008626     0.12740
C2290       C  0.29694895  0.45301965  0.85018471     0.62270
F2291       F  0.20644400  0.56703116  0.82416952    -0.22890
F2292       F  0.18038744  0.53051757  0.79863925    -0.20220
F2293       F  0.21847765  0.55768527  0.77522193    -0.19900
F2294       F  0.28207852  0.42810977  0.86362975    -0.19950
F2295       F  0.31507113  0.46745708  0.87199309    -0.20280
F2296       F  0.31619559  0.44203691  0.82702946    -0.22950
C2297       C  0.24732238  0.45884281  0.15025802    -0.05790
C2298       C  0.25952353  0.48476248  0.13490235     0.00140
C2299       C  0.27319270  0.50828719  0.15279997    -0.08430
C2300       C  0.26909840  0.50751857  0.18506915    -0.05810
C2301       C  0.25337150  0.48345193  0.20052769     0.00130
C2302       C  0.24492358  0.45714616  0.18270306    -0.08340
C2303       C  0.23578124  0.42637401  0.19696034     0.62040
H2304       H  0.23875981  0.43992972  0.13650415     0.12730
H2305       H  0.27700965  0.52698344  0.19788949     0.12740
C2306       C  0.29153693  0.53501172  0.13924222     0.62270
F2307       F  0.22840790  0.40459617  0.17484081    -0.22890
F2308       F  0.21048573  0.42925483  0.21608700    -0.20220
F2309       F  0.26036854  0.41494734  0.21322234    -0.19900
F2310       F  0.27398741  0.56151294  0.14062212    -0.19950
F2311       F  0.30071209  0.52978980  0.10903327    -0.20280
F2312       F  0.31800500  0.53953339  0.15624924    -0.22950
C2313       C  0.24763292  0.64169565  0.02637661    -0.05790
C2314       C  0.26298721  0.62674002  0.00197988     0.00140
C2315       C  0.27838890  0.64495483  0.97936217    -0.08430
C2316       C  0.27417138  0.67713217  0.97971390    -0.05810
C2317       C  0.25613292  0.69188624  0.00256932     0.00130
C2318       C  0.24436385  0.67377557  0.02750199    -0.08340
C2319       C  0.22738228  0.68620021  0.05563314     0.62040
H2320       H  0.23654697  0.62812113  0.04440938     0.12730
H2321       H  0.28386607  0.69060972  0.96090443     0.12740
C2322       C  0.29876772  0.63175779  0.95406233     0.62270
F2323       F  0.19668598  0.67756714  0.05429680    -0.22890
F2324       F  0.22913669  0.71766461  0.05830973    -0.20220
F2325       F  0.24005370  0.67384633  0.08212246    -0.19900
F2326       F  0.28366500  0.63362944  0.92613316    -0.19950
F2327       F  0.30673973  0.60145315  0.95958717    -0.20280
F2328       F  0.32582981  0.64870734  0.95202421    -0.22950
C2329       C  0.22608000  0.29887051  0.02142534    -0.05790
C2330       C  0.24397497  0.28168863  0.00062088     0.00140
C2331       C  0.26127732  0.29781399  0.97756921    -0.08430
C2332       C  0.26303166  0.33036919  0.97921315    -0.05810
C2333       C  0.24535570  0.34737753  0.00060038     0.00130
C2334       C  0.22483037  0.33102239  0.02078613    -0.08340
C2335       C  0.19953027  0.34608260  0.04008042     0.62040
H2336       H  0.21195879  0.28657521  0.03814959     0.12730
H2337       H  0.27710582  0.34277687  0.96243649     0.12740
C2338       C  0.27638570  0.28271091  0.94975268     0.62270
F2339       F  0.17653324  0.32521995  0.04821519    -0.22890
F2340       F  0.18552367  0.36911104  0.02341127    -0.20220
F2341       F  0.21155714  0.35770225  0.06710543    -0.19900
F2342       F  0.26686119  0.29745283  0.92313699    -0.19950
F2343       F  0.26881732  0.25194359  0.94679734    -0.20280
F2344       F  0.30805277  0.28559455  0.95185945    -0.22950
C2345       C  0.16077963  0.46841117  0.75520405    -0.05790
C2346       C  0.14535311  0.49281723  0.74064922     0.00140
C2347       C  0.16313489  0.51605189  0.72578800    -0.08430
C2348       C  0.19512735  0.51695639  0.73073863    -0.05810
C2349       C  0.21011044  0.49456230  0.74870439     0.00130
C2350       C  0.19292871  0.46839287  0.75868440    -0.08340
C2351       C  0.20755391  0.44083030  0.77432714     0.62040
H2352       H  0.14746861  0.44990317  0.76568841     0.12730
H2353       H  0.20824542  0.53611400  0.72141075     0.12740
C2354       C  0.14961381  0.54046111  0.70490637     0.62270
F2355       F  0.20919964  0.44595959  0.80578225    -0.22890
F2356       F  0.23672501  0.43535248  0.76246569    -0.20220
F2357       F  0.19019110  0.41442332  0.76957467    -0.19900
F2358       F  0.15042645  0.56867024  0.71968880    -0.19950
F2359       F  0.11961089  0.53382851  0.69660233    -0.20280
F2360       F  0.16701325  0.54243437  0.67798047    -0.22950
C2361       C  0.98607849  0.34158621  0.72970464    -0.05790
C2362       C  0.00887997  0.35528262  0.74808733     0.00140
C2363       C  0.02762852  0.33571676  0.76648685    -0.08430
C2364       C  0.02360457  0.30370075  0.76424135    -0.05810
C2365       C  0.99888193  0.28999775  0.74857720     0.00130
C2366       C  0.97969710  0.30957346  0.73054276    -0.08340
C2367       C  0.95146641  0.29913423  0.71300903     0.62040
H2368       H  0.97150587  0.35649366  0.71605898     0.12730
H2369       H  0.03927705  0.28889592  0.77648085     0.12740
C2370       C  0.05032806  0.34743991  0.79047552     0.62270
F2371       F  0.92677393  0.31791940  0.72038752    -0.22890
F2372       F  0.94278691  0.26944640  0.71988958    -0.20220
F2373       F  0.95733233  0.30139967  0.68161633    -0.19900
F2374       F  0.03687690  0.37004677  0.80847654    -0.19950
F2375       F  0.07660160  0.35863691  0.77602368    -0.20280
F2376       F  0.05940287  0.32429549  0.81048343    -0.22950
C2377       C  0.97784269  0.65170444  0.75673655    -0.05790
C2378       C  0.00516101  0.63721994  0.74692206     0.00140
C2379       C  0.03008579  0.65615671  0.73669867    -0.08430
C2380       C  0.02776134  0.68855385  0.73988627    -0.05810
C2381       C  0.00124155  0.70262051  0.75247142     0.00130
C2382       C  0.97521048  0.68379337  0.75943644    -0.08340
C2383       C  0.94444584  0.69700818  0.76986902     0.62040
H2384       H  0.95850177  0.63778743  0.76406008     0.12730
H2385       H  0.04736475  0.70310019  0.73415580     0.12740
C2386       C  0.05908678  0.64246392  0.72265810     0.62270
F2387       F  0.92138887  0.67482967  0.77100811    -0.22890
F2388       F  0.93512339  0.71941917  0.74936086    -0.20220
F2389       F  0.94696220  0.70921118  0.79911399    -0.19900
F2390       F  0.05130464  0.62097210  0.70044684    -0.19950
F2391       F  0.07629180  0.62845230  0.74537050    -0.20280
F2392       F  0.07732112  0.66481763  0.70858608    -0.22950
C2393       C  0.85399382  0.52037535  0.77019817    -0.05790
C2394       C  0.86862727  0.50170807  0.74822371     0.00140
C2395       C  0.85048111  0.48658345  0.72604810    -0.08430
C2396       C  0.81804885  0.48755907  0.72912976    -0.05810
C2397       C  0.80284263  0.50435711  0.75273282     0.00130
C2398       C  0.82178029  0.52341430  0.77178690    -0.08340
C2399       C  0.80951627  0.54775364  0.79374124     0.62040
H2400       H  0.86803248  0.53275931  0.78667959     0.12730
H2401       H  0.80505070  0.47309014  0.71427526     0.12740
C2402       C  0.86533534  0.46964759  0.69918172     0.62270
F2403       F  0.83013538  0.57211896  0.79599929    -0.22890
F2404       F  0.80536653  0.53526322  0.82288532    -0.20220
F2405       F  0.78234573  0.55996489  0.78323876    -0.19900
F2406       F  0.88096041  0.44414101  0.70978999    -0.19950
F2407       F  0.88585655  0.48911570  0.68402867    -0.20280
F2408       F  0.84372060  0.45983222  0.67798231    -0.22950
C2409       C  0.77335743  0.34184706  0.02074699    -0.05790
C2410       C  0.75505651  0.35639260  0.99854642     0.00140
C2411       C  0.73538756  0.33817947  0.98002684    -0.08430
C2412       C  0.73655157  0.30579628  0.98298297    -0.05810
C2413       C  0.75696242  0.29120893  0.00351708     0.00130
C2414       C  0.77384134  0.30986463  0.02441209    -0.08340
C2415       C  0.79252380  0.29760876  0.05124327     0.62040
H2416       H  0.78801620  0.35563271  0.03549105     0.12730
H2417       H  0.72340908  0.29172348  0.96722796     0.12740
C2418       C  0.71424349  0.35244337  0.95632643     0.62270
F2419       F  0.82356685  0.29895583  0.04376966    -0.22890
F2420       F  0.78464039  0.26784294  0.05917459    -0.20220
F2421       F  0.78727992  0.31551867  0.07720621    -0.19900
F2422       F  0.73128379  0.36184031  0.93084643    -0.19950
F2423       F  0.69906111  0.37749362  0.96888704    -0.20280
F2424       F  0.69218721  0.33158208  0.94647929    -0.22950
C2425       C  0.75822209  0.65235406  0.97772839    -0.05790
C2426       C  0.75914748  0.63530325  0.00556484     0.00140
C2427       C  0.76247107  0.65205276  0.03356504    -0.08430
C2428       C  0.77068483  0.68320900  0.03183205    -0.05810
C2429       C  0.76680681  0.70083707  0.00502625     0.00130
C2430       C  0.76071941  0.68496204  0.97702148    -0.08340
C2431       C  0.76234545  0.70065758  0.94571602     0.62040
H2432       H  0.75636299  0.63994638  0.95612684     0.12730
H2433       H  0.77743056  0.69444232  0.05282570     0.12740
C2434       C  0.75490898  0.63948887  0.06563125     0.62270
F2435       F  0.74525138  0.68453005  0.92421596    -0.22890
F2436       F  0.79269894  0.70149909  0.93569211    -0.20220
F2437       F  0.75100676  0.73028255  0.94683529    -0.19900
F2438       F  0.78130151  0.62824574  0.07921223    -0.19950
F2439       F  0.73206277  0.61715306  0.06433529    -0.20280
F2440       F  0.74354702  0.66242300  0.08470310    -0.22950
C2441       C  0.75968527  0.45774708  0.14970237    -0.05790
C2442       C  0.75308126  0.48641290  0.13596966     0.00140
C2443       C  0.74523816  0.51147961  0.15556631    -0.08430
C2444       C  0.74690697  0.50740720  0.18787933    -0.05810
C2445       C  0.75694660  0.47958892  0.20113170     0.00130
C2446       C  0.76236816  0.45397469  0.18172978    -0.08340
C2447       C  0.77185378  0.42279477  0.19441519     0.62040
H2448       H  0.76485390  0.43823981  0.13531435     0.12730
H2449       H  0.74241881  0.52668370  0.20308144     0.12740
C2450       C  0.73615952  0.54273332  0.14284135     0.62270
F2451       F  0.77301399  0.40038811  0.17169962    -0.22890
F2452       F  0.75088697  0.41301359  0.21656684    -0.20220
F2453       F  0.80080899  0.42495710  0.20713142    -0.19900
F2454       F  0.71484670  0.53914098  0.11953780    -0.19950
F2455       F  0.76196008  0.55790856  0.13139084    -0.20280
F2456       F  0.72297814  0.56110771  0.16546641    -0.22950
C2457       C  0.76901435  0.46953171  0.84405253    -0.05790
C2458       C  0.75394799  0.49366697  0.85950856     0.00140
C2459       C  0.73844981  0.51600780  0.84176382    -0.08430
C2460       C  0.74230543  0.51568946  0.80944452    -0.05810
C2461       C  0.76014911  0.49336621  0.79386870     0.00130
C2462       C  0.77181921  0.46837958  0.81167178    -0.08340
C2463       C  0.78437687  0.43888013  0.79751735     0.62040
H2464       H  0.77929834  0.45148039  0.85770672     0.12730
H2465       H  0.73233802  0.53421253  0.79662900     0.12740
C2466       C  0.71837261  0.54106082  0.85559699     0.62270
F2467       F  0.79748472  0.41980850  0.81941079    -0.22890
F2468       F  0.80680610  0.44476742  0.77558200    -0.20220
F2469       F  0.76028151  0.42277113  0.78452491    -0.19900
F2470       F  0.73395151  0.56891342  0.85403750    -0.19950
F2471       F  0.71010352  0.53507667  0.88595940    -0.20280
F2472       F  0.69142433  0.54343648  0.83892101    -0.22950
C2473       C  0.26115608  0.52464511  0.65105346    -0.05790
C2474       C  0.25204213  0.49642897  0.63783824     0.00140
C2475       C  0.24252330  0.47219017  0.65787552    -0.08430
C2476       C  0.24733302  0.47540495  0.68985013    -0.05810
C2477       C  0.25901619  0.50279749  0.70273075     0.00130
C2478       C  0.26486731  0.52832152  0.68303608    -0.08340
C2479       C  0.27558958  0.55928667  0.69532129     0.62040
H2480       H  0.26719849  0.54368173  0.63598116     0.12730
H2481       H  0.24211650  0.45613969  0.70500767     0.12740
C2482       C  0.22690410  0.44291558  0.64696086     0.62270
F2483       F  0.27715525  0.58152880  0.67236546    -0.22890
F2484       F  0.30464207  0.55655331  0.70766388    -0.20220
F2485       F  0.25522762  0.56962343  0.71766348    -0.19900
F2486       F  0.24787382  0.41901730  0.64700880    -0.19950
F2487       F  0.21466176  0.44614619  0.61776266    -0.20280
F2488       F  0.20275738  0.43541951  0.66679413    -0.22950
C2489       C  0.25299323  0.46811695  0.34306596    -0.05790
C2490       C  0.26152472  0.49560998  0.35773207     0.00140
C2491       C  0.27217406  0.52029067  0.33870969    -0.08430
C2492       C  0.26734670  0.51854178  0.30667914    -0.05810
C2493       C  0.26029522  0.49083891  0.29144793     0.00130
C2494       C  0.25519445  0.46432127  0.31072895    -0.08340
C2495       C  0.25493736  0.43107150  0.30004910     0.62040
H2496       H  0.24731190  0.44825844  0.35733140     0.12730
H2497       H  0.27229867  0.53875036  0.29347218     0.12740
C2498       C  0.29329590  0.54600722  0.35004168     0.62270
F2499       F  0.28081794  0.41641958  0.31117934    -0.22890
F2500       F  0.25483410  0.42817163  0.26859110    -0.20220
F2501       F  0.22904869  0.41609065  0.31164558    -0.19900
F2502       F  0.31387967  0.53502763  0.37160925    -0.19950
F2503       F  0.27607961  0.56989843  0.36208100    -0.20280
F2504       F  0.31117862  0.55791678  0.32623586    -0.22950
C2505       C  0.26923175  0.65035183  0.52317548    -0.05790
C2506       C  0.25577117  0.63257006  0.49972949     0.00140
C2507       C  0.24144112  0.64797054  0.47482946    -0.08430
C2508       C  0.24402258  0.68032690  0.47272521    -0.05810
C2509       C  0.26053367  0.69778818  0.49444452     0.00130
C2510       C  0.27095669  0.68265960  0.52148199    -0.08340
C2511       C  0.28485176  0.69961506  0.54863832     0.62040
H2512       H  0.27979218  0.63897769  0.54262041     0.12730
H2513       H  0.23520876  0.69169155  0.45262830     0.12740
C2514       C  0.22464215  0.63041278  0.44973947     0.62270
F2515       F  0.27754659  0.68461994  0.57604061    -0.22890
F2516       F  0.27351774  0.72919287  0.55104413    -0.20220
F2517       F  0.31657360  0.70054075  0.54536492    -0.19900
F2518       F  0.20523640  0.60854418  0.46290276    -0.19950
F2519       F  0.24571140  0.61605014  0.43047821    -0.20280
F2520       F  0.20686750  0.64979362  0.43186860    -0.22950
C2521       C  0.27971492  0.30193127  0.48208761    -0.05790
C2522       C  0.25888958  0.28690752  0.50234929     0.00140
C2523       C  0.23665683  0.30577286  0.51816603    -0.08430
C2524       C  0.23631063  0.33780591  0.51215213    -0.05810
C2525       C  0.25954686  0.35241515  0.49486225     0.00130
C2526       C  0.28261875  0.33405984  0.48058227    -0.08340
C2527       C  0.31215318  0.34748941  0.46667151     0.62040
H2528       H  0.29583818  0.28817838  0.46889520     0.12730
H2529       H  0.21915151  0.35213448  0.52342329     0.12740
C2530       C  0.21428944  0.29511425  0.54306965     0.62270
F2531       F  0.33420381  0.32505639  0.46140397    -0.22890
F2532       F  0.32478665  0.36846541  0.48693842    -0.20220
F2533       F  0.30629300  0.36158912  0.43875154    -0.19900
F2534       F  0.22241875  0.26741294  0.55554930    -0.19950
F2535       F  0.18497361  0.29310865  0.53096025    -0.20280
F2536       F  0.21369964  0.31607978  0.56715959    -0.22950
C2537       C  0.49250298  0.65452335  0.75717141    -0.05790
C2538       C  0.51221270  0.63493819  0.74035737     0.00140
C2539       C  0.53325775  0.64873341  0.71919274    -0.08430
C2540       C  0.53833720  0.68028102  0.72074591    -0.05810
C2541       C  0.51993378  0.70064766  0.73771658     0.00130
C2542       C  0.49445050  0.68718181  0.75439111    -0.08340
C2543       C  0.46775342  0.70503708  0.76793221     0.62040
H2544       H  0.47445037  0.64425469  0.77140239     0.12730
H2545       H  0.55649208  0.68903308  0.70642504     0.12740
C2546       C  0.54703104  0.63211365  0.69144635     0.62270
F2547       F  0.46784289  0.70255064  0.79977906    -0.22890
F2548       F  0.44036800  0.69289854  0.75705310    -0.20220
F2549       F  0.46851933  0.73556396  0.75983709    -0.19900
F2550       F  0.52612344  0.61102573  0.68049268    -0.19950
F2551       F  0.57428872  0.61785807  0.69917325    -0.20280
F2552       F  0.55325311  0.65223862  0.66724038    -0.22950
C2553       C  0.66056587  0.51992070  0.74852193    -0.05790
C2554       C  0.64654507  0.49068024  0.75008473     0.00140
C2555       C  0.66612033  0.46468472  0.75441578    -0.08430
C2556       C  0.69834389  0.46870551  0.75156760    -0.05810
C2557       C  0.71207822  0.49764343  0.74668425     0.00130
C2558       C  0.69270148  0.52408962  0.74740927    -0.08340
C2559       C  0.70361798  0.55739605  0.74769535     0.62040
H2560       H  0.64618709  0.54024890  0.74742770     0.12730
H2561       H  0.71300446  0.44873764  0.75256709     0.12740
C2562       C  0.65445684  0.43240521  0.76141885     0.62270
F2563       F  0.69301580  0.57236222  0.72170803    -0.22890
F2564       F  0.73515057  0.56054999  0.74879852    -0.20220
F2565       F  0.69146599  0.57192935  0.77349589    -0.19900
F2566       F  0.64850918  0.41717640  0.73406031    -0.19950
F2567       F  0.62834568  0.43322982  0.77998972    -0.20280
F2568       F  0.67633969  0.41561013  0.77724522    -0.22950
C2569       C  0.35038773  0.51581531  0.76365088    -0.05790
C2570       C  0.36520372  0.49250797  0.74681969     0.00140
C2571       C  0.34686432  0.47116650  0.72993466    -0.08430
C2572       C  0.31472444  0.47490090  0.73007238    -0.05810
C2573       C  0.30003510  0.50010957  0.74413258     0.00130
C2574       C  0.31833280  0.52071750  0.76205128    -0.08340
C2575       C  0.30649831  0.54899252  0.77874902     0.62040
H2576       H  0.36442812  0.53175955  0.77678423     0.12730
H2577       H  0.30060704  0.45852923  0.71773967     0.12740
C2578       C  0.36051674  0.44554535  0.71010671     0.62270
F2579       F  0.32436267  0.57433871  0.77069415    -0.22890
F2580       F  0.30854925  0.54435678  0.81029086    -0.20220
F2581       F  0.27659482  0.55586021  0.77167703    -0.19900
F2582       F  0.37666551  0.42520875  0.72842398    -0.19950
F2583       F  0.37981832  0.45806545  0.68769787    -0.20280
F2584       F  0.33808708  0.42870936  0.69494010    -0.22950
C2585       C  0.47795957  0.34040073  0.72953811    -0.05790
C2586       C  0.49989760  0.35472734  0.74832728     0.00140
C2587       C  0.51929963  0.33617203  0.76662686    -0.08430
C2588       C  0.51640561  0.30373630  0.76483945    -0.05810
C2589       C  0.49492849  0.28938509  0.74513860     0.00130
C2590       C  0.47436147  0.30838072  0.72824206    -0.08340
C2591       C  0.44890378  0.29630057  0.70750659     0.62040
H2592       H  0.46370364  0.35444733  0.71477434     0.12730
H2593       H  0.53215586  0.28945727  0.77761748     0.12740
C2594       C  0.54328969  0.35058525  0.78740710     0.62270
F2595       F  0.42395028  0.31609937  0.70800446    -0.22890
F2596       F  0.43794016  0.26793617  0.71694598    -0.20220
F2597       F  0.45985039  0.29434250  0.67746888    -0.19900
F2598       F  0.52931760  0.37147404  0.80709428    -0.19950
F2599       F  0.56534582  0.36567456  0.76965288    -0.20280
F2600       F  0.55802864  0.32871170  0.80522304    -0.22950
C2601       C  0.73583347  0.64396531  0.51678869    -0.05790
C2602       C  0.75433007  0.63074002  0.49364348     0.00140
C2603       C  0.77279856  0.65031508  0.47469654    -0.08430
C2604       C  0.77178613  0.68252327  0.47974527    -0.05810
C2605       C  0.75206848  0.69567619  0.50216453     0.00130
C2606       C  0.73488877  0.67568234  0.52204952    -0.08340
C2607       C  0.71554551  0.68586070  0.54971823     0.62040
H2608       H  0.72148303  0.62923825  0.53127039     0.12730
H2609       H  0.78522789  0.69781349  0.46506071     0.12740
C2610       C  0.79234225  0.63775957  0.44840569     0.62270
F2611       F  0.68463212  0.68361822  0.54253993    -0.22890
F2612       F  0.72194570  0.71542156  0.55920818    -0.20220
F2613       F  0.72135058  0.66681200  0.57469770    -0.19900
F2614       F  0.77351392  0.62919036  0.42430537    -0.19950
F2615       F  0.80898504  0.61252837  0.45820858    -0.20280
F2616       F  0.81303251  0.65961894  0.43731471    -0.22950
C2617       C  0.75526249  0.47247754  0.65290955    -0.05790
C2618       C  0.74954304  0.49994815  0.63688429     0.00140
C2619       C  0.74326704  0.52692781  0.65478471    -0.08430
C2620       C  0.74747678  0.52577207  0.68701318    -0.05810
C2621       C  0.75180220  0.49817587  0.70321070     0.00130
C2622       C  0.75482127  0.47063142  0.68537418    -0.08340
C2623       C  0.75783346  0.43846879  0.69860526     0.62040
H2624       H  0.75881210  0.45149344  0.63979444     0.12730
H2625       H  0.74557441  0.54675476  0.69981809     0.12740
C2626       C  0.72916977  0.55623303  0.64177673     0.62270
F2627       F  0.73161353  0.42158343  0.69198040    -0.22890
F2628       F  0.76195155  0.43852895  0.72989071    -0.20220
F2629       F  0.78310468  0.42398253  0.68543318    -0.19900
F2630       F  0.70471842  0.54908515  0.62272419    -0.19950
F2631       F  0.75141640  0.57325626  0.62624131    -0.20280
F2632       F  0.71726376  0.57492680  0.66479291    -0.22950
C2633       C  0.72035367  0.30074468  0.48740674    -0.05790
C2634       C  0.74456409  0.28327504  0.50033230     0.00140
C2635       C  0.76873792  0.30105361  0.51456150    -0.08430
C2636       C  0.77068504  0.33313792  0.50895059    -0.05810
C2637       C  0.74623788  0.34947865  0.49633148     0.00130
C2638       C  0.71965591  0.33300167  0.48718373    -0.08340
C2639       C  0.68947940  0.34900873  0.47974166     0.62040
H2640       H  0.70033727  0.28931829  0.47859599     0.12730
H2641       H  0.78992791  0.34622987  0.51806740     0.12740
C2642       C  0.78901929  0.29047602  0.54068099     0.62270
F2643       F  0.66534132  0.32841786  0.47572393    -0.22890
F2644       F  0.69242869  0.36615534  0.45294443    -0.20220
F2645       F  0.68152502  0.36788266  0.50412303    -0.19900
F2646       F  0.81904618  0.28750777  0.53021963    -0.19950
F2647       F  0.77856919  0.26363119  0.55371062    -0.20280
F2648       F  0.78879765  0.31210684  0.56420948    -0.22950
C2649       C  0.76847738  0.50136793  0.30451965    -0.05790
C2650       C  0.74755156  0.48047114  0.29097650     0.00140
C2651       C  0.73092922  0.45969387  0.31055747    -0.08430
C2652       C  0.73426693  0.46221544  0.34255671    -0.05810
C2653       C  0.75439393  0.48353773  0.35609181     0.00130
C2654       C  0.77227920  0.50312772  0.33683438    -0.08340
C2655       C  0.79498965  0.52590652  0.35042666     0.62040
H2656       H  0.78087946  0.51737512  0.28975290     0.12730
H2657       H  0.71973607  0.44803097  0.35731616     0.12740
C2658       C  0.70821243  0.43554121  0.29901890     0.62270
F2659       F  0.81240646  0.54052640  0.32771675    -0.22890
F2660       F  0.81491297  0.51060379  0.36986560    -0.20220
F2661       F  0.77932767  0.54818085  0.36701649    -0.19900
F2662       F  0.70522879  0.41142484  0.31987729    -0.19950
F2663       F  0.71777365  0.42281168  0.27140964    -0.20280
F2664       F  0.67955272  0.44877609  0.29551410    -0.22950
C2665       C  0.66331883  0.72926135  0.46919192    -0.05790
C2666       C  0.64683945  0.74386748  0.49302861     0.00140
C2667       C  0.66361499  0.75868566  0.51670552    -0.08430
C2668       C  0.69575884  0.75478703  0.51769206    -0.05810
C2669       C  0.71231802  0.73809182  0.49508153     0.00130
C2670       C  0.69561182  0.72693404  0.46913885    -0.08340
C2671       C  0.70993085  0.71151586  0.44108252     0.62040
H2672       H  0.65075409  0.71836079  0.45061778     0.12730
H2673       H  0.70768138  0.76378260  0.53749436     0.12740
C2674       C  0.64887104  0.77790660  0.54204082     0.62270
F2675       F  0.69552057  0.72157006  0.41450656    -0.22890
F2676       F  0.70621366  0.67994196  0.44348771    -0.20220
F2677       F  0.74064747  0.71835570  0.43751862    -0.19900
F2678       F  0.64796142  0.76105678  0.56920633    -0.19950
F2679       F  0.61939438  0.78719876  0.53471774    -0.20280
F2680       F  0.66627479  0.80427783  0.54677064    -0.22950
C2681       C  0.54252935  0.74459683  0.64457474    -0.05790
C2682       C  0.51240303  0.74754911  0.63323357     0.00140
C2683       C  0.48824849  0.75320732  0.65497464    -0.08430
C2684       C  0.49451098  0.75050781  0.68681521    -0.05810
C2685       C  0.52401287  0.74365036  0.69795274     0.00130
C2686       C  0.54901010  0.74163972  0.67612110    -0.08340
C2687       C  0.58265202  0.73404836  0.68308963     0.62040
H2688       H  0.56157805  0.74216515  0.62837503     0.12730
H2689       H  0.47573305  0.75251279  0.70335446     0.12740
C2690       C  0.45565918  0.76135613  0.64588375     0.62270
F2691       F  0.59076310  0.70716529  0.66792148    -0.22890
F2692       F  0.58834976  0.73001287  0.71407499    -0.20220
F2693       F  0.60192660  0.75703048  0.67193962    -0.19900
F2694       F  0.43850665  0.73466663  0.64238745    -0.19950
F2695       F  0.45553679  0.77849705  0.61890847    -0.20280
F2696       F  0.44160438  0.77902858  0.66856211    -0.22950
C2697       C  0.31865728  0.75663869  0.50605206    -0.05790
C2698       C  0.30439957  0.73660229  0.48472796     0.00140
C2699       C  0.32375005  0.71955167  0.46426977    -0.08430
C2700       C  0.35577557  0.72116542  0.46786311    -0.05810
C2701       C  0.36979168  0.74063976  0.48947918     0.00130
C2702       C  0.35100013  0.75931401  0.50841631    -0.08340
C2703       C  0.36510062  0.78160295  0.53127979     0.62040
H2704       H  0.30463725  0.76877224  0.52252390     0.12730
H2705       H  0.37007301  0.70614773  0.45390964     0.12740
C2706       C  0.31199810  0.69810190  0.43925274     0.62270
F2707       F  0.34298050  0.79980351  0.54542687    -0.22890
F2708       F  0.38579434  0.80083021  0.51606478    -0.20220
F2709       F  0.38036214  0.76544422  0.55398813    -0.19900
F2710       F  0.28436730  0.70786976  0.42751644    -0.19950
F2711       F  0.30870272  0.66867062  0.45113062    -0.20280
F2712       F  0.33259869  0.69705700  0.41460646    -0.22950
C2713       C  0.47810082  0.73248890  0.34123043    -0.05790
C2714       C  0.50539410  0.74308163  0.35502647     0.00140
C2715       C  0.52984873  0.75323557  0.33551681    -0.08430
C2716       C  0.52801719  0.74756421  0.30358155    -0.05810
C2717       C  0.50152606  0.73488686  0.28989292     0.00130
C2718       C  0.47554672  0.72828475  0.30913485    -0.08340
C2719       C  0.44527536  0.71610059  0.29659194     0.62040
H2720       H  0.45899365  0.72567484  0.35599929     0.12730
H2721       H  0.54775470  0.75296360  0.28914600     0.12740
C2722       C  0.55793449  0.77058335  0.34687487     0.62270
F2723       F  0.42233071  0.71508282  0.31906146    -0.22890
F2724       F  0.44912332  0.68652294  0.28569407    -0.20220
F2725       F  0.43500938  0.73501130  0.27326471    -0.19900
F2726       F  0.58316936  0.75123768  0.34652008    -0.19950
F2727       F  0.55366800  0.78227924  0.37629262    -0.20280
F2728       F  0.56400760  0.79533595  0.32747296    -0.22950
C2729       C  0.66000859  0.51393898  0.25740708    -0.05790
C2730       C  0.64352093  0.49026586  0.24267958     0.00140
C2731       C  0.66015657  0.46689266  0.22708536    -0.08430
C2732       C  0.69253954  0.46621956  0.22976287    -0.05810
C2733       C  0.70861694  0.48802672  0.24763152     0.00130
C2734       C  0.69225421  0.51382958  0.25917019    -0.08340
C2735       C  0.70790758  0.54114619  0.27437175     0.62040
H2736       H  0.64765264  0.53223774  0.26900231     0.12730
H2737       H  0.70515194  0.44728766  0.21974823     0.12740
C2738       C  0.64382880  0.44234476  0.20837177     0.62270
F2739       F  0.70938293  0.53629599  0.30590357    -0.22890
F2740       F  0.73722934  0.54586633  0.26241701    -0.20220
F2741       F  0.69141787  0.56787239  0.26916572    -0.19900
F2742       F  0.62342069  0.45608844  0.18828231    -0.19950
F2743       F  0.62787002  0.42252235  0.22785893    -0.20280
F2744       F  0.66442324  0.42509816  0.19102037    -0.22950
C2745       C  0.31485833  0.46088978  0.24453615    -0.05790
C2746       C  0.30081675  0.48971868  0.24817309     0.00140
C2747       C  0.32013881  0.51648786  0.24598913    -0.08430
C2748       C  0.35226813  0.51270592  0.24472018    -0.05810
C2749       C  0.36636874  0.48367551  0.24471183     0.00130
C2750       C  0.34700583  0.45725023  0.24163762    -0.08340
C2751       C  0.35875333  0.42488045  0.23588677     0.62040
H2752       H  0.30060818  0.44059710  0.24450324     0.12730
H2753       H  0.36663788  0.53322535  0.24463903     0.12740
C2754       C  0.30960258  0.54975974  0.24412128     0.62270
F2755       F  0.33710791  0.40746969  0.22023153    -0.22890
F2756       F  0.36418057  0.41046962  0.26383458    -0.20220
F2757       F  0.38516211  0.42537055  0.21772061    -0.19900
F2758       F  0.32181555  0.56639952  0.26829198    -0.19950
F2759       F  0.27821330  0.55299714  0.24476477    -0.20280
F2760       F  0.32044753  0.56266702  0.21682733    -0.22950
C2761       C  0.52773287  0.33289260  0.26975858    -0.05790
C2762       C  0.50615077  0.34821499  0.25146645     0.00140
C2763       C  0.48454474  0.33064522  0.23460715    -0.08430
C2764       C  0.48504718  0.29820472  0.23722122    -0.05810
C2765       C  0.50564881  0.28288713  0.25705039     0.00130
C2766       C  0.52856140  0.30075061  0.27229042    -0.08340
C2767       C  0.55430411  0.28776377  0.29200095     0.62040
H2768       H  0.54396821  0.34623706  0.28316164     0.12730
H2769       H  0.46772767  0.28475919  0.22544950     0.12740
C2770       C  0.46040150  0.34610962  0.21484928     0.62270
F2771       F  0.58154241  0.30345561  0.28571914    -0.22890
F2772       F  0.56005236  0.25712300  0.28644297    -0.20220
F2773       F  0.54687973  0.29159854  0.32289855    -0.19900
F2774       F  0.47450066  0.36643406  0.19443922    -0.19950
F2775       F  0.43993574  0.36203808  0.23350956    -0.20280
F2776       F  0.44372917  0.32491805  0.19784219    -0.22950
C2777       C  0.48561959  0.64379761  0.22932915    -0.05790
C2778       C  0.50879771  0.62792656  0.24523047     0.00140
C2779       C  0.53141917  0.64539023  0.26139002    -0.08430
C2780       C  0.52789374  0.67741822  0.26329719    -0.05810
C2781       C  0.50410263  0.69337784  0.24855678     0.00130
C2782       C  0.48275816  0.67621367  0.23049130    -0.08340
C2783       C  0.45548929  0.68977580  0.21360878     0.62040
H2784       H  0.46868244  0.63050784  0.21669439     0.12730
H2785       H  0.54413747  0.69070635  0.27669650     0.12740
C2786       C  0.55900798  0.63108202  0.27748361     0.62270
F2787       F  0.45938942  0.68516405  0.18220182    -0.22890
F2788       F  0.45165009  0.72078325  0.21876497    -0.20220
F2789       F  0.42869335  0.67498773  0.22316148    -0.19900
F2790       F  0.57640459  0.61451473  0.25638053    -0.19950
F2791       F  0.54907064  0.61211533  0.30133073    -0.20280
F2792       F  0.57835749  0.65306944  0.29015361    -0.22950
C2793       C  0.53010521  0.25520529  0.65796155    -0.05790
C2794       C  0.50636092  0.24105002  0.64120130     0.00140
C2795       C  0.48234533  0.22572304  0.65764469    -0.08430
C2796       C  0.48122264  0.22816930  0.69014777    -0.05810
C2797       C  0.50307029  0.24569875  0.70646313     0.00130
C2798       C  0.52948694  0.25671695  0.69029645    -0.08340
C2799       C  0.55724404  0.27069594  0.70618328     0.62040
H2800       H  0.54901463  0.26636354  0.64580748     0.12730
H2801       H  0.46198844  0.21819742  0.70273198     0.12740
C2802       C  0.45753976  0.20759734  0.64105723     0.62270
F2803       F  0.58404699  0.26292190  0.69045666    -0.22890
F2804       F  0.56012054  0.25986930  0.73606258    -0.20220
F2805       F  0.55468725  0.30243665  0.70642247    -0.19900
F2806       F  0.47099752  0.18783627  0.61987541    -0.19950
F2807       F  0.43803916  0.22750986  0.62587614    -0.20280
F2808       F  0.43995932  0.19005111  0.66144410    -0.22950
C2809       C  0.51584452  0.22099358  0.31335033    -0.05790
C2810       C  0.49580546  0.24175702  0.29850828     0.00140
C2811       C  0.47439385  0.25846308  0.31710105    -0.08430
C2812       C  0.47683644  0.25705792  0.34927095    -0.05810
C2813       C  0.49813863  0.23802074  0.36409591     0.00130
C2814       C  0.51756239  0.21907902  0.34591832    -0.08340
C2815       C  0.54052728  0.19764155  0.36087812     0.62040
H2816       H  0.53189707  0.20793158  0.29937213     0.12730
H2817       H  0.46205292  0.27185496  0.36296949     0.12740
C2818       C  0.44871856  0.27867250  0.30475461     0.62270
F2819       F  0.55521878  0.17914180  0.33932259    -0.22890
F2820       F  0.52544519  0.17871905  0.38194514    -0.20220
F2821       F  0.56274949  0.21468829  0.37598582    -0.19900
F2822       F  0.44100097  0.27181955  0.27477471    -0.19950
F2823       F  0.45751503  0.30928231  0.30655816    -0.20280
F2824       F  0.42222374  0.27444056  0.32241886    -0.22950
C2825       C  0.31536457  0.23128151  0.48568083    -0.05790
C2826       C  0.29971398  0.24550864  0.51051228     0.00140
C2827       C  0.31710116  0.25595171  0.53604224    -0.08430
C2828       C  0.34934966  0.25352978  0.53489505    -0.05810
C2829       C  0.36510309  0.24088782  0.50935701     0.00130
C2830       C  0.34766681  0.22817147  0.48494474    -0.08340
C2831       C  0.36286844  0.21189382  0.45782974     0.62040
H2832       H  0.30228191  0.22411188  0.46583219     0.12730
H2833       H  0.36239076  0.26353090  0.55349175     0.12740
C2834       C  0.30225768  0.27118009  0.56396968     0.62270
F2835       F  0.34163870  0.19517355  0.44092904    -0.22890
F2836       F  0.38487448  0.19156352  0.46840252    -0.20220
F2837       F  0.37663463  0.23323527  0.43829447    -0.19900
F2838       F  0.32220959  0.27253252  0.58871856    -0.19950
F2839       F  0.27673236  0.25454258  0.57352084    -0.20280
F2840       F  0.29380099  0.30095007  0.55664803    -0.22950
C2841       C  0.65667686  0.22824198  0.47546316    -0.05790
C2842       C  0.64100365  0.23332304  0.50344277     0.00140
C2843       C  0.65867759  0.23588017  0.53082337    -0.08430
C2844       C  0.69090570  0.23888476  0.52816418    -0.05810
C2845       C  0.70671391  0.23699135  0.49974881     0.00130
C2846       C  0.68896050  0.23127031  0.47250337    -0.08340
C2847       C  0.70218757  0.23244618  0.43973088     0.62040
H2848       H  0.64306516  0.22435839  0.45509355     0.12730
H2849       H  0.70364199  0.24550269  0.54840221     0.12740
C2850       C  0.64426800  0.23685255  0.56294784     0.62270
F2851       F  0.68018208  0.22609989  0.41762584    -0.22890
F2852       F  0.72495348  0.21099314  0.43603368    -0.20220
F2853       F  0.71369358  0.26142977  0.43317485    -0.19900
F2854       F  0.62099090  0.21504083  0.56548678    -0.19950
F2855       F  0.63262906  0.26589209  0.56881305    -0.20280
F2856       F  0.66573192  0.23026927  0.58547675    -0.22950
loop_ 
_geom_bond_atom_site_label_1 
_geom_bond_atom_site_label_2 
_geom_bond_distance 
_geom_bond_site_symmetry_2 
_ccdc_geom_bond_type 
C1           N19   1.346       .  A
C1           C38   1.456       .  S
C1          C160   1.458       .  S
N2           N19   1.323       .  A
N2           N24   1.319       .  A
N2          Co39   2.074       .  S
C3           N28   1.336       .  A
C3           C41   1.466       .  S
C3           H48   1.082       .  S
H4           C45   1.081       .  S
C5           N29   1.340       .  A
C5            C9   1.456       .  S
C5           H34   1.082       .  S
Co6          N24   2.079       .  S
Co6          N14   2.077       .  S
Co6          N46   2.097       .  S
Co6          N22   2.097       .  S
Co6         Cl50   2.455       .  S
N7           C45   1.341       .  A
N7           N14   1.319       .  A
N7           Co8   2.087       .  S
Co8          N11   2.073       .  S
Co8          N28   2.084       .  S
Co8          N15   2.094       .  S
Co8         Cl50   2.440       .  S
C9           N47   1.347       .  A
C9          C266   1.460       .  S
N10          N17   1.317       .  A
N10          N40   1.322       .  A
N10         Co43   2.062       .  S
N11          N29   1.318       .  A
N11          N47   1.324       .  A
N12          C41   1.355       .  A
N12          N22   1.326       .  A
H13          C38   1.081       .  S
N14          N35   1.325       .  A
N15          N33   1.318       .  A
N15          N20   1.325       .  A
C16          N20   1.355       .  A
C16          C44   1.467       .  S
C16        C2829   1.493       .  S
N17          C32   1.339       .  A
N17         Co39   2.076       .  S
C18          N46   1.342       .  A
C18          C21   1.478       .  S
C18          H52   1.081       .  S
C21          N42   1.349       .  A
C21        C2842   1.502       .  S
N22          N28   1.321       .  A
N23          C49   1.338       .  A
N23          N25   1.318       .  A
N23         Co39   2.080       .  S
N24          C38   1.341       .  A
N25          N53   1.324       .  A
N25         Co43   2.088       .  S
H26          C49   1.082       .  S
H27          C44   1.081       .  S
N29         Co43   2.082       .  S
N30          N42   1.321       .  A
N30          N46   1.319       .  A
N30         Co39   2.079       .  S
C31          N35   1.347       .  A
C31          C45   1.457       .  S
C31         C104   1.463       .  S
C32          C51   1.456       .  S
C32          H36   1.082       .  S
N33          C44   1.336       .  A
N33         Co43   2.073       .  S
C37          N53   1.353       .  A
C37          C49   1.468       .  S
C37        C2794   1.490       .  S
Co39        Cl50   2.439       .  S
N40          C51   1.344       .  A
C41        C2813   1.490       .  S
Co43        Cl50   2.447       .  S
C51         C263   1.453       .  S
C54          N72   1.344       .  A
C54          C91   1.457       .  S
C54         C210   1.455       .  S
N55          N72   1.321       .  A
N55          N77   1.319       .  A
N55         Co92   2.064       .  S
C56          N81   1.345       .  A
C56          C94   1.471       .  S
C56         H101   1.082       .  S
H57          C98   1.081       .  S
C58          N82   1.337       .  A
C58          C62   1.454       .  S
C58          H87   1.082       .  S
Co59         N77   2.083       .  S
Co59         N67   2.084       .  S
Co59         N99   2.075       .  S
Co59         N75   2.086       .  S
Co59       Cl103   2.428       .  S
N60          C98   1.341       .  A
N60          N67   1.319       .  A
N60         Co61   2.078       .  S
Co61         N64   2.071       .  S
Co61         N81   2.093       .  S
Co61         N68   2.104       .  S
Co61       Cl103   2.460       .  S
C62         N100   1.345       .  A
C62         C296   1.453       .  S
N63          N70   1.318       .  A
N63          N93   1.324       .  A
N63         Co96   2.070       .  S
N64          N82   1.319       .  A
N64         N100   1.323       .  A
N65          C94   1.347       .  A
N65          N75   1.320       .  A
H66          C91   1.082       .  S
N67          N88   1.325       .  A
N68          N86   1.319       .  A
N68          N73   1.325       .  A
C69          N73   1.361       .  A
C69          C97   1.466       .  S
C69        C2749   1.504       .  S
N70          C85   1.342       .  A
N70         Co92   2.086       .  S
C71          N99   1.337       .  A
C71          C74   1.465       .  S
C71         H105   1.082       .  S
C74          N95   1.355       .  A
C74        C2730   1.490       .  S
N75          N81   1.320       .  A
N76         C102   1.337       .  A
N76          N78   1.319       .  A
N76         Co92   2.082       .  S
N77          C91   1.341       .  A
N78         N106   1.324       .  A
N78         Co96   2.089       .  S
H79         C102   1.082       .  S
H80          C97   1.073       .  S
N82         Co96   2.073       .  S
N83          N95   1.325       .  A
N83          N99   1.318       .  A
N83         Co92   2.093       .  S
C84          N88   1.349       .  A
C84          C98   1.456       .  S
C84         C107   1.464       .  S
C85         C104   1.459       .  S
C85          H89   1.082       .  S
N86          C97   1.334       .  A
N86         Co96   2.070       .  S
C90         N106   1.352       .  A
C90         C102   1.468       .  S
C90        C2762   1.487       .  S
Co92       Cl103   2.452       .  S
N93         C104   1.347       .  A
C94        C2778   1.497       .  S
Co96       Cl103   2.437       .  S
C107        N125   1.349       .  A
C107        C144   1.457       .  S
N108        N125   1.325       .  A
N108        N130   1.318       .  A
N108       Co145   2.083       .  S
C109        N134   1.339       .  A
C109        C147   1.465       .  S
C109        H154   1.081       .  S
H110        C151   1.082       .  S
C111        N135   1.341       .  A
C111        C115   1.457       .  S
C111        H140   1.082       .  S
Co112       N130   2.077       .  S
Co112       N120   2.071       .  S
Co112       N152   2.084       .  S
Co112       N128   2.093       .  S
Co112      Cl156   2.456       .  S
N113        C151   1.338       .  A
N113        N120   1.319       .  A
N113       Co114   2.072       .  S
Co114       N117   2.082       .  S
Co114       N134   2.081       .  S
Co114       N121   2.093       .  S
Co114      Cl156   2.436       .  S
C115        N153   1.348       .  A
C115        C243   1.465       .  S
N116        N123   1.319       .  A
N116        N146   1.322       .  A
N116       Co149   2.065       .  S
N117        N135   1.319       .  A
N117        N153   1.325       .  A
N118        C147   1.355       .  A
N118        N128   1.324       .  A
H119        C144   1.082       .  S
N120        N141   1.322       .  A
N121        N139   1.319       .  A
N121        N126   1.321       .  A
C122        N126   1.356       .  A
C122        C150   1.475       .  S
C122       C2682   1.507       .  S
N123        C138   1.340       .  A
N123       Co145   2.083       .  S
C124        N152   1.342       .  A
C124        C127   1.471       .  S
C124        H158   1.080       .  S
C127        N148   1.353       .  A
C127       C2714   1.496       .  S
N128        N134   1.320       .  A
N129        C155   1.334       .  A
N129        N131   1.319       .  A
N129       Co145   2.073       .  S
N130        C144   1.341       .  A
N131        N159   1.327       .  A
N131       Co149   2.101       .  S
H132        C155   1.082       .  S
H133        C150   1.076       .  S
N135       Co149   2.081       .  S
N136        N148   1.322       .  A
N136        N152   1.318       .  A
N136       Co145   2.086       .  S
C137        N141   1.345       .  A
C137        C151   1.454       .  S
C137        C168   1.452       .  S
C138        C157   1.457       .  S
C138        H142   1.082       .  S
N139        C150   1.342       .  A
N139       Co149   2.087       .  S
C143        N159   1.357       .  A
C143        C155   1.462       .  S
C143       C2701   1.489       .  S
Co145      Cl156   2.426       .  S
N146        C157   1.344       .  A
C147       C2666   1.491       .  S
Co149      Cl156   2.463       .  S
C157        C274   1.455       .  S
C160        N178   1.347       .  A
C160        C197   1.456       .  S
N161        N178   1.324       .  A
N161        N183   1.318       .  A
N161       Co198   2.076       .  S
C162        N187   1.332       .  A
C162        C200   1.463       .  S
C162        H207   1.071       .  S
H163        C204   1.082       .  S
C164        N188   1.338       .  A
C164        C168   1.454       .  S
C164        H193   1.082       .  S
Co165       N183   2.075       .  S
Co165       N173   2.059       .  S
Co165       N205   2.096       .  S
Co165       N181   2.100       .  S
Co165      Cl209   2.463       .  S
N166        C204   1.343       .  A
N166        N173   1.318       .  A
N166       Co167   2.092       .  S
Co167       N170   2.070       .  S
Co167       N187   2.069       .  S
Co167       N174   2.090       .  S
Co167      Cl209   2.415       .  S
C168        N206   1.345       .  A
N169        N176   1.317       .  A
N169        N199   1.323       .  A
N169       Co202   2.062       .  S
N170        N188   1.318       .  A
N170        N206   1.322       .  A
N171        C200   1.360       .  A
N171        N181   1.326       .  A
H172        C197   1.082       .  S
N173        N194   1.321       .  A
N174        N192   1.318       .  A
N174        N179   1.320       .  A
C175        N179   1.354       .  A
C175        C203   1.468       .  S
C175       C2602   1.492       .  S
N176        C191   1.339       .  A
N176       Co198   2.078       .  S
C177        N205   1.344       .  A
C177        C180   1.467       .  S
C177        H211   1.082       .  S
C180        N201   1.348       .  A
C180       C2637   1.486       .  S
N181        N187   1.318       .  A
N182        C208   1.335       .  A
N182        N184   1.319       .  A
N182       Co198   2.081       .  S
N183        C197   1.339       .  A
N184        N212   1.324       .  A
N184       Co202   2.089       .  S
H185        C208   1.082       .  S
H186        C203   1.079       .  S
N188       Co202   2.067       .  S
N189        N201   1.323       .  A
N189        N205   1.322       .  A
N189       Co198   2.085       .  S
C190        N194   1.344       .  A
C190        C204   1.460       .  S
C190        C221   1.460       .  S
C191        C210   1.456       .  S
C191        H195   1.082       .  S
N192        C203   1.342       .  A
N192       Co202   2.078       .  S
C196        N212   1.354       .  A
C196        C208   1.467       .  S
C196       C2653   1.486       .  S
Co198      Cl209   2.421       .  S
N199        C210   1.345       .  A
C200       C2618   1.506       .  S
Co202      Cl209   2.466       .  S
C213        N231   1.348       .  A
C213        C250   1.455       .  S
C213        C316   1.459       .  S
N214        N231   1.324       .  A
N214        N236   1.318       .  A
N214       Co251   2.079       .  S
C215        N240   1.339       .  A
C215        C253   1.468       .  S
C215        H260   1.079       .  S
H216        C257   1.081       .  S
C217        N241   1.339       .  A
C217        C221   1.456       .  S
C217        H246   1.082       .  S
Co218       N236   2.072       .  S
Co218       N226   2.069       .  S
Co218       N258   2.094       .  S
Co218       N234   2.092       .  S
Co218      Cl262   2.466       .  S
N219        C257   1.345       .  A
N219        N226   1.319       .  A
N219       Co220   2.097       .  S
Co220       N223   2.075       .  S
Co220       N240   2.102       .  S
Co220       N227   2.107       .  S
Co220      Cl262   2.430       .  S
C221        N259   1.346       .  A
N222        N229   1.318       .  A
N222        N252   1.322       .  A
N222       Co255   2.061       .  S
N223        N241   1.318       .  A
N223        N259   1.325       .  A
N224        C253   1.354       .  A
N224        N234   1.327       .  A
H225        C250   1.082       .  S
N226        N247   1.324       .  A
N227        N245   1.319       .  A
N227        N232   1.326       .  A
C228        N232   1.361       .  A
C228        C256   1.468       .  S
C228       C2554   1.509       .  S
N229        C244   1.339       .  A
N229       Co251   2.077       .  S
C230        N258   1.343       .  A
C230        C233   1.468       .  S
C230        H264   1.082       .  S
C233        N254   1.347       .  A
C233       C2570   1.493       .  S
N234        N240   1.322       .  A
N235        C261   1.336       .  A
N235        N237   1.319       .  A
N235       Co251   2.081       .  S
N236        C250   1.340       .  A
N237        N265   1.327       .  A
N237       Co255   2.093       .  S
H238        C261   1.082       .  S
H239        C256   1.074       .  S
N241       Co255   2.078       .  S
N242        N254   1.321       .  A
N242        N258   1.321       .  A
N242       Co251   2.083       .  S
C243        N247   1.346       .  A
C243        C257   1.460       .  S
C244        C263   1.455       .  S
C244        H248   1.082       .  S
N245        C256   1.337       .  A
N245       Co255   2.073       .  S
C249        N265   1.355       .  A
C249        C261   1.467       .  S
C249       C2586   1.490       .  S
Co251      Cl262   2.426       .  S
N252        C263   1.344       .  A
C253       C2538   1.496       .  S
Co255      Cl262   2.456       .  S
C266        N284   1.346       .  A
C266        C303   1.457       .  S
N267        N284   1.323       .  A
N267        N289   1.318       .  A
N267       Co304   2.070       .  S
C268        N293   1.337       .  A
C268        C306   1.467       .  S
C268        H313   1.075       .  S
H269        C310   1.082       .  S
C270        N294   1.340       .  A
C270        C274   1.457       .  S
C270        H299   1.082       .  S
Co271       N289   2.084       .  S
Co271       N279   2.055       .  S
Co271       N311   2.079       .  S
Co271       N287   2.087       .  S
Co271      Cl315   2.440       .  S
N272        C310   1.341       .  A
N272        N279   1.318       .  A
N272       Co273   2.083       .  S
Co273       N276   2.067       .  S
Co273       N293   2.081       .  S
Co273       N280   2.085       .  S
Co273      Cl315   2.442       .  S
C274        N312   1.345       .  A
N275        N282   1.318       .  A
N275        N305   1.324       .  A
N275       Co308   2.082       .  S
N276        N294   1.318       .  A
N276        N312   1.322       .  A
N277        C306   1.354       .  A
N277        N287   1.324       .  A
H278        C303   1.081       .  S
N279        N300   1.320       .  A
N280        N298   1.318       .  A
N280        N285   1.324       .  A
C281        N285   1.352       .  A
C281        C309   1.468       .  S
C281       C2506   1.494       .  S
N282        C297   1.339       .  A
N282       Co304   2.071       .  S
C283        N311   1.338       .  A
C283        C286   1.460       .  S
C283        H317   1.080       .  S
C286        N307   1.355       .  A
C286       C2525   1.487       .  S
N287        N293   1.319       .  A
N288        C314   1.343       .  A
N288        N290   1.320       .  A
N288       Co304   2.093       .  S
N289        C303   1.342       .  A
N290        N318   1.320       .  A
N290       Co308   2.085       .  S
H291        C314   1.080       .  S
H292        C309   1.081       .  S
N294       Co308   2.079       .  S
N295        N307   1.326       .  A
N295        N311   1.322       .  A
N295       Co304   2.102       .  S
C296        N300   1.343       .  A
C296        C310   1.457       .  S
C297        C316   1.454       .  S
C297        H301   1.082       .  S
N298        C309   1.340       .  A
N298       Co308   2.084       .  S
C302        N318   1.352       .  A
C302        C314   1.473       .  S
C302       C2474   1.497       .  S
Co304      Cl315   2.458       .  S
N305        C316   1.348       .  A
C306       C2490   1.499       .  S
Co308      Cl315   2.435       .  S
C319        N337   1.347       .  A
C319        C356   1.452   1_556  S
C319        C584   1.453       .  S
N320        N337   1.323       .  A
N320        N342   1.319   1_556  A
N320       Co357   2.074       .  S
C321        N346   1.332       .  A
C321        C359   1.468       .  S
C321        H366   1.080       .  S
H322        C363   1.082       .  S
C323        N347   1.339       .  A
C323        C327   1.456       .  S
C323        H352   1.082       .  S
Co324       N342   2.073       .  S
Co324       N332   2.062       .  S
Co324       N364   2.067       .  S
Co324       N340   2.093       .  S
Co324      Cl368   2.438   1_554  S
N325        C363   1.340       .  A
N325        N332   1.317       .  A
N325       Co326   2.083       .  S
Co326       N329   2.069       .  S
Co326       N346   2.065       .  S
Co326       N333   2.077       .  S
Co326      Cl368   2.429   1_554  S
C327        N365   1.345   1_556  A
C327        C531   1.453       .  S
N328        N335   1.319       .  A
N328        N358   1.323       .  A
N328       Co361   2.079       .  S
N329        N347   1.318   1_554  A
N329        N365   1.322       .  A
N330        C359   1.357       .  A
N330        N340   1.326       .  A
H331        C356   1.081       .  S
N332        N353   1.323       .  A
N333        N351   1.317   1_554  A
N333        N338   1.320       .  A
C334        N338   1.351   1_556  A
C334        C362   1.469       .  S
C334       C2410   1.487       .  S
N335        C350   1.340       .  A
N335       Co357   2.071       .  S
C336        N364   1.325       .  A
C336        C339   1.468       .  S
C336        H370   1.069       .  S
C339        N360   1.361   1_554  A
C339       C2426   1.506       .  S
N340        N346   1.315       .  A
N341        C367   1.343       .  A
N341        N343   1.322       .  A
N341       Co357   2.094       .  S
N342        C356   1.338       .  A
N343        N371   1.320       .  A
N343       Co361   2.084       .  S
H344        C367   1.081       .  S
H345        C362   1.079       .  S
N347       Co361   2.073       .  S
N348        N360   1.328       .  A
N348        N364   1.318   1_556  A
N348       Co357   2.099       .  S
C349        N353   1.345       .  A
C349        C363   1.458       .  S
C349        C528   1.458       .  S
C350        C369   1.454       .  S
C350        H354   1.082       .  S
N351        C362   1.342       .  A
N351       Co361   2.083       .  S
C355        N371   1.350       .  A
C355        C367   1.470       .  S
C355       C2458   1.489       .  S
Co357      Cl368   2.458       .  S
N358        C369   1.347       .  A
C359       C2442   1.500       .  S
Co361      Cl368   2.440       .  S
C369        C422   1.457       .  S
C372        N390   1.347   1_455  A
C372        C409   1.460       .  S
C372        C581   1.465       .  S
N373        N390   1.324       .  A
N373        N395   1.319   1_655  A
N373       Co410   2.075       .  S
C374        N399   1.342       .  A
C374        C412   1.470       .  S
C374        H419   1.081       .  S
H375        C416   1.082       .  S
C376        N400   1.340       .  A
C376        C380   1.456   1_655  S
C376        H405   1.081       .  S
Co377       N395   2.091       .  S
Co377       N385   2.085       .  S
Co377       N417   2.089       .  S
Co377       N393   2.087       .  S
Co377      Cl421   2.425       .  S
N378        C416   1.340       .  A
N378        N385   1.319       .  A
N378       Co379   2.072       .  S
Co379       N382   2.073       .  S
Co379       N399   2.092       .  S
Co379       N386   2.099       .  S
Co379      Cl421   2.472       .  S
C380        N418   1.347       .  A
C380        C614   1.461       .  S
N381        N388   1.318       .  A
N381        N411   1.324       .  A
N381       Co414   2.080       .  S
N382        N400   1.319   1_455  A
N382        N418   1.324       .  A
N383        C412   1.351       .  A
N383        N393   1.322       .  A
H384        C409   1.081       .  S
N385        N406   1.324       .  A
N386        N404   1.319   1_455  A
N386        N391   1.328       .  A
C387        N391   1.358       .  A
C387        C415   1.470   1_455  S
C387       C2378   1.505       .  S
N388        C403   1.338       .  A
N388       Co410   2.067       .  S
C389        N417   1.339       .  A
C389        C392   1.465       .  S
C389        H423   1.076       .  S
C392        N413   1.356   1_455  A
C392       C2362   1.498       .  S
N393        N399   1.321       .  A
N394        C420   1.344       .  A
N394        N396   1.321       .  A
N394       Co410   2.099       .  S
N395        C409   1.343       .  A
N396        N424   1.322       .  A
N396       Co414   2.085       .  S
H397        C420   1.081       .  S
H398        C415   1.080       .  S
N400       Co414   2.084       .  S
N401        N413   1.327       .  A
N401        N417   1.320   1_655  A
N401       Co410   2.096       .  S
C402        N406   1.349       .  A
C402        C416   1.454       .  S
C402        C475   1.461       .  S
C403        C422   1.452       .  S
C403        H407   1.082       .  S
N404        C415   1.335       .  A
N404       Co414   2.084       .  S
C408        N424   1.350       .  A
C408        C420   1.470       .  S
C408       C2394   1.488       .  S
Co410      Cl421   2.469   1_655  S
N411        C422   1.348       .  A
C412       C2346   1.489       .  S
Co414      Cl421   2.424   1_655  S
C425        N443   1.345       .  A
C425        C462   1.456   1_556  S
C425        C539   1.456       .  S
N426        N443   1.322       .  A
N426        N448   1.318   1_556  A
N426       Co463   2.064       .  S
C427        N452   1.340       .  A
C427        C465   1.468       .  S
C427        H472   1.080       .  S
H428        C469   1.082       .  S
C429        N453   1.341       .  A
C429        C433   1.456       .  S
C429        H458   1.082       .  S
Co430       N448   2.084       .  S
Co430       N438   2.078       .  S
Co430       N470   2.085       .  S
Co430       N446   2.083       .  S
Co430      Cl474   2.427   1_554  S
N431        C469   1.339       .  A
N431        N438   1.317       .  A
N431       Co432   2.065       .  S
Co432       N435   2.083       .  S
Co432       N452   2.082       .  S
Co432       N439   2.081       .  S
Co432      Cl474   2.451   1_554  S
C433        N471   1.348   1_556  A
C433        C592   1.462       .  S
N434        N441   1.319       .  A
N434        N464   1.325       .  A
N434       Co467   2.088       .  S
N435        N453   1.319   1_554  A
N435        N471   1.324       .  A
N436        C465   1.353       .  A
N436        N446   1.322       .  A
H437        C462   1.082       .  S
N438        N459   1.323       .  A
N439        N457   1.319   1_554  A
N439        N444   1.321       .  A
C440        N444   1.352   1_556  A
C440        C468   1.469       .  S
C440       C2314   1.490   1_556  S
N441        C456   1.339       .  A
N441       Co463   2.068       .  S
C442        N470   1.337       .  A
C442        C445   1.463   1_554  S
C442        H476   1.077       .  S
C445        N466   1.356       .  A
C445       C2333   1.495   1_556  S
N446        N452   1.318       .  A
N447        C473   1.342       .  A
N447        N449   1.322       .  A
N447       Co463   2.089       .  S
N448        C462   1.340       .  A
N449        N477   1.321       .  A
N449       Co467   2.093       .  S
H450        C473   1.080       .  S
H451        C468   1.081       .  S
N453       Co467   2.077       .  S
N454        N466   1.327       .  A
N454        N470   1.320   1_556  A
N454       Co463   2.097       .  S
C455        N459   1.347       .  A
C455        C469   1.454       .  S
C455        C508   1.455       .  S
C456        C475   1.452       .  S
C456        H460   1.082       .  S
N457        C468   1.342       .  A
N457       Co467   2.090       .  S
C461        N477   1.353       .  A
C461        C473   1.468       .  S
C461       C2282   1.488       .  S
Co463      Cl474   2.461       .  S
N464        C475   1.350       .  A
C465       C2298   1.491       .  S
Co467      Cl474   2.437       .  S
C478        N496   1.346   1_455  A
C478        C515   1.456       .  S
C478        C634   1.456       .  S
N479        N496   1.323       .  A
N479        N501   1.318   1_655  A
N479       Co516   2.069       .  S
C480        N505   1.344       .  A
C480        C518   1.470       .  S
C480        H525   1.080       .  S
H481        C522   1.082       .  S
C482        N506   1.340       .  A
C482        C486   1.456   1_655  S
C482        H511   1.081       .  S
Co483       N501   2.077       .  S
Co483       N491   2.076       .  S
Co483       N523   2.075       .  S
Co483       N499   2.085       .  S
Co483      Cl527   2.439       .  S
N484        C522   1.338       .  A
N484        N491   1.317       .  A
N484       Co485   2.064       .  S
Co485       N488   2.077       .  S
Co485       N505   2.090       .  S
Co485       N492   2.093       .  S
Co485      Cl527   2.443       .  S
C486        N524   1.346       .  A
C486        C561   1.459       .  S
N487        N494   1.318       .  A
N487        N517   1.322       .  A
N487       Co520   2.062       .  S
N488        N506   1.318   1_455  A
N488        N524   1.324       .  A
N489        C518   1.352       .  A
N489        N499   1.321       .  A
H490        C515   1.081       .  S
N491        N512   1.324       .  A
N492        N510   1.322   1_455  A
N492        N497   1.323       .  A
C493        N497   1.351       .  A
C493        C521   1.465   1_455  S
C493       C2266   1.483       .  S
N494        C509   1.342       .  A
N494       Co516   2.085       .  S
C495        N523   1.337       .  A
C495        C498   1.469       .  S
C495        H529   1.081       .  S
C498        N519   1.353   1_455  A
C498       C2250   1.496       .  S
N499        N505   1.320       .  A
N500        C526   1.338       .  A
N500        N502   1.321       .  A
N500       Co516   2.085       .  S
N501        C515   1.340       .  A
N502        N530   1.325       .  A
N502       Co520   2.096       .  S
H503        C526   1.076       .  S
H504        C521   1.082       .  S
N506       Co520   2.075       .  S
N507        N519   1.323       .  A
N507        N523   1.318   1_655  A
N507       Co516   2.088       .  S
C508        N512   1.348       .  A
C508        C522   1.452       .  S
C509        C528   1.458       .  S
C509        H513   1.082       .  S
N510        C521   1.342       .  A
N510       Co520   2.091       .  S
C514        N530   1.355       .  A
C514        C526   1.465       .  S
C514       C2218   1.495       .  S
Co516      Cl527   2.440   1_655  S
N517        C528   1.344       .  A
C518       C2234   1.493       .  S
Co520      Cl527   2.449   1_655  S
C531        N549   1.344       .  A
C531        C568   1.456   1_556  S
N532        N549   1.322       .  A
N532        N554   1.318   1_556  A
N532       Co569   2.067       .  S
C533        N558   1.347       .  A
C533        C571   1.474       .  S
C533        H578   1.081       .  S
H534        C575   1.081       .  S
C535        N559   1.340       .  A
C535        C539   1.456       .  S
C535        H564   1.081       .  S
Co536       N554   2.074       .  S
Co536       N544   2.075       .  S
Co536       N576   2.080       .  S
Co536       N552   2.088       .  S
Co536      Cl580   2.440   1_654  S
N537        C575   1.341       .  A
N537        N544   1.319   1_455  A
N537       Co538   2.079       .  S
Co538       N541   2.068       .  S
Co538       N558   2.101       .  S
Co538       N545   2.105       .  S
Co538      Cl580   2.461   1_554  S
C539        N577   1.345   1_556  A
N540        N547   1.318   1_455  A
N540        N570   1.324       .  A
N540       Co573   2.071       .  S
N541        N559   1.319   1_554  A
N541        N577   1.323       .  A
N542        C571   1.347   1_655  A
N542        N552   1.320       .  A
H543        C568   1.082       .  S
N544        N565   1.323       .  A
N545        N563   1.319   1_554  A
N545        N550   1.326       .  A
C546        N550   1.360   1_556  A
C546        C574   1.466       .  S
C546       C2189   1.504       .  S
N547        C562   1.342       .  A
N547       Co569   2.090       .  S
C548        N576   1.342       .  A
C548        C551   1.466   1_554  S
C548        H582   1.080       .  S
C551        N572   1.354       .  A
C551       C2154   1.490       .  S
N552        N558   1.321   1_655  A
N553        C579   1.334       .  A
N553        N555   1.316   1_655  A
N553       Co569   2.072       .  S
N554        C568   1.339       .  A
N555        N583   1.325       .  A
N555       Co573   2.091       .  S
H556        C579   1.080       .  S
H557        C574   1.073       .  S
N559       Co573   2.083       .  S
N560        N572   1.322       .  A
N560        N576   1.318   1_556  A
N560       Co569   2.091       .  S
C561        N565   1.346   1_455  A
C561        C575   1.456       .  S
C562        C581   1.460   1_655  S
C562        H566   1.082       .  S
N563        C574   1.334       .  A
N563       Co573   2.076       .  S
C567        N583   1.355   1_655  A
C567        C579   1.471       .  S
C567       C2170   1.501       .  S
Co569      Cl580   2.438   1_655  S
N570        C581   1.347       .  A
C571       C2202   1.503   1_455  S
Co573      Cl580   2.441       .  S
C584        N602   1.347   1_556  A
C584        C621   1.452       .  S
N585        N602   1.323       .  A
N585        N607   1.318   1_554  A
N585       Co622   2.078       .  S
C586        N611   1.337       .  A
C586        C624   1.462       .  S
C586        H631   1.077       .  S
H587        C628   1.081       .  S
C588        N612   1.340       .  A
C588        C592   1.456   1_554  S
C588        H617   1.082       .  S
Co589       N607   2.064       .  S
Co589       N597   2.070       .  S
Co589       N629   2.089       .  S
Co589       N605   2.087       .  S
Co589      Cl633   2.459   1_656  S
N590        C628   1.342       .  A
N590        N597   1.319   1_455  A
N590       Co591   2.087       .  S
Co591       N594   2.083       .  S
Co591       N611   2.079       .  S
Co591       N598   2.083       .  S
Co591      Cl633   2.425   1_556  S
C592        N630   1.348       .  A
N593        N600   1.319   1_455  A
N593        N623   1.323       .  A
N593       Co626   2.071       .  S
N594        N612   1.318   1_556  A
N594        N630   1.325       .  A
N595        C624   1.354   1_655  A
N595        N605   1.324       .  A
H596        C621   1.082       .  S
N597        N618   1.323       .  A
N598        N616   1.319   1_556  A
N598        N603   1.321       .  A
C599        N603   1.352   1_554  A
C599        C627   1.469       .  S
C599       C2109   1.486   1_554  S
N600        C615   1.339       .  A
N600       Co622   2.079       .  S
C601        N629   1.340       .  A
C601        C604   1.472   1_556  S
C601        H635   1.079       .  S
C604        N625   1.354       .  A
C604       C2090   1.500       .  S
N605        N611   1.319   1_655  A
N606        C632   1.337       .  A
N606        N608   1.319   1_655  A
N606       Co622   2.079       .  S
N607        C621   1.337       .  A
N608        N636   1.323       .  A
N608       Co626   2.089       .  S
H609        C632   1.081       .  S
H610        C627   1.081       .  S
N612       Co626   2.074       .  S
N613        N625   1.324       .  A
N613        N629   1.320   1_554  A
N613       Co622   2.090       .  S
C614        N618   1.346   1_455  A
C614        C628   1.458       .  S
C615        C634   1.455   1_655  S
C615        H619   1.082       .  S
N616        C627   1.342       .  A
N616       Co626   2.087       .  S
C620        N636   1.353       .  A
C620        C632   1.470   1_455  S
C620       C2138   1.497       .  S
Co622      Cl633   2.431   1_655  S
N623        C634   1.346       .  A
C624       C2125   1.488       .  S
Co626      Cl633   2.459       .  S
C637        N655   1.345       .  A
C637        C674   1.454       .  S
C637        C740   1.452       .  S
N638        N655   1.322       .  A
N638        N660   1.317       .  A
N638       Co675   2.074       .  S
C639        N664   1.336       .  A
C639        C677   1.464   1_554  S
C639        H684   1.078       .  S
H640        C681   1.082       .  S
C641        N665   1.337       .  A
C641        C645   1.453       .  S
C641        H670   1.082       .  S
Co642       N660   2.064       .  S
Co642       N650   2.087       .  S
Co642       N682   2.114       .  S
Co642       N658   2.104       .  S
Co642      Cl686   2.467       .  S
N643        C681   1.340       .  A
N643        N650   1.319   1_554  A
N643       Co644   2.071       .  S
Co644       N647   2.078       .  S
Co644       N664   2.077       .  S
Co644       N651   2.093       .  S
Co644      Cl686   2.425   1_554  S
C645        N683   1.348       .  A
C645        C796   1.456       .  S
N646        N653   1.317   1_554  A
N646        N676   1.321       .  A
N646       Co679   2.066       .  S
N647        N665   1.318       .  A
N647        N683   1.325       .  A
N648        C677   1.359       .  A
N648        N658   1.326       .  A
H649        C674   1.081       .  S
N650        N671   1.325       .  A
N651        N669   1.322       .  A
N651        N656   1.322       .  A
C652        N656   1.349       .  A
C652        C680   1.466       .  S
C652       C2058   1.490       .  S
N653        C668   1.338       .  A
N653       Co675   2.067       .  S
C654        N682   1.349       .  A
C654        C657   1.477       .  S
C654        H688   1.081       .  S
C657        N678   1.343       .  A
C657       C2077   1.487       .  S
N658        N664   1.321   1_556  A
N659        C685   1.337       .  A
N659        N661   1.319   1_556  A
N659       Co675   2.067       .  S
N660        C674   1.339       .  A
N661        N689   1.325       .  A
N661       Co679   2.098       .  S
H662        C685   1.078       .  S
H663        C680   1.082       .  S
N665       Co679   2.067       .  S
N666        N678   1.320       .  A
N666        N682   1.320       .  A
N666       Co675   2.070       .  S
C667        N671   1.349       .  A
C667        C681   1.454   1_556  S
C667        C849   1.462       .  S
C668        C687   1.453       .  S
C668        H672   1.082       .  S
N669        C680   1.343       .  A
N669       Co679   2.090       .  S
C673        N689   1.356   1_556  A
C673        C685   1.457       .  S
C673       C2042   1.486       .  S
Co675      Cl686   2.415       .  S
N676        C687   1.346   1_554  A
C677       C2026   1.500       .  S
Co679      Cl686   2.462   1_554  S
C687        C952   1.451       .  S
C690        N708   1.350       .  A
C690        C727   1.458   1_565  S
C690        C910   1.469       .  S
N691        N708   1.326       .  A
N691        N713   1.319   1_565  A
N691       Co728   2.090       .  S
C692        N717   1.334       .  A
C692        C730   1.469       .  S
C692        H737   1.080       .  S
H693        C734   1.081       .  S
C694        N718   1.337       .  A
C694        C698   1.453       .  S
C694        H723   1.082       .  S
Co695       N713   2.080       .  S
Co695       N703   2.068       .  S
Co695       N735   2.093       .  S
Co695       N711   2.103       .  S
Co695      Cl739   2.457   1_545  S
N696        C734   1.339       .  A
N696        N703   1.320       .  A
N696       Co697   2.085       .  S
Co697       N700   2.069       .  S
Co697       N717   2.080       .  S
Co697       N704   2.097       .  S
Co697      Cl739   2.441   1_545  S
C698        N736   1.347   1_565  A
C698        C879   1.456       .  S
N699        N706   1.318       .  A
N699        N729   1.322       .  A
N699       Co732   2.070       .  S
N700        N718   1.317   1_545  A
N700        N736   1.324       .  A
N701        C730   1.357       .  A
N701        N711   1.327       .  A
H702        C727   1.082       .  S
N703        N724   1.323       .  A
N704        N722   1.317   1_545  A
N704        N709   1.326       .  A
C705        N709   1.359   1_565  A
C705        C733   1.469       .  S
C705       C1978   1.503       .  S
N706        C721   1.338       .  A
N706       Co728   2.069       .  S
C707        N735   1.342       .  A
C707        C710   1.470   1_545  S
C707        H741   1.080       .  S
C710        N731   1.351       .  A
C710       C1962   1.487       .  S
N711        N717   1.321       .  A
N712        C738   1.340       .  A
N712        N714   1.319       .  A
N712       Co728   2.090       .  S
N713        C727   1.343       .  A
N714        N742   1.324       .  A
N714       Co732   2.074       .  S
H715        C738   1.082       .  S
H716        C733   1.075       .  S
N718       Co732   2.072       .  S
N719        N731   1.320       .  A
N719        N735   1.321   1_565  A
N719       Co728   2.085       .  S
C720        N724   1.345       .  A
C720        C734   1.455       .  S
C720        C743   1.456       .  S
C721        C740   1.454       .  S
C721        H725   1.082       .  S
N722        C733   1.336       .  A
N722       Co732   2.077       .  S
C726        N742   1.348       .  A
C726        C738   1.467       .  S
C726       C2010   1.491       .  S
Co728      Cl739   2.436       .  S
N729        C740   1.345       .  A
C730       C1994   1.503       .  S
Co732      Cl739   2.444       .  S
C743        N761   1.345       .  A
C743        C780   1.458       .  S
N744        N761   1.322       .  A
N744        N766   1.318       .  A
N744       Co781   2.063       .  S
C745        N770   1.346       .  A
C745        C783   1.474       .  S
C745        H790   1.082       .  S
H746        C787   1.082       .  S
C747        N771   1.342       .  A
C747        C751   1.458       .  S
C747        H776   1.081       .  S
Co748       N766   2.082       .  S
Co748       N756   2.076       .  S
Co748       N788   2.076       .  S
Co748       N764   2.077       .  S
Co748      Cl792   2.420   1_556  S
N749        C787   1.340       .  A
N749        N756   1.318   1_554  A
N749       Co750   2.074       .  S
Co750       N753   2.068       .  S
Co750       N770   2.098       .  S
Co750       N757   2.101       .  S
Co750      Cl792   2.468       .  S
C751        N789   1.345       .  A
C751        C804   1.460       .  S
N752        N759   1.319   1_554  A
N752        N782   1.323       .  A
N752       Co785   2.066       .  S
N753        N771   1.319       .  A
N753        N789   1.323       .  A
N754        C783   1.344   1_556  A
N754        N764   1.319       .  A
H755        C780   1.082       .  S
N756        N777   1.323       .  A
N757        N775   1.321       .  A
N757        N762   1.326       .  A
C758        N762   1.357       .  A
C758        C786   1.462       .  S
C758       C1946   1.496       .  S
N759        C774   1.342       .  A
N759       Co781   2.090       .  S
C760        N788   1.336       .  A
C760        C763   1.466       .  S
C760        H794   1.075       .  S
C763        N784   1.358       .  A
C763       C1930   1.500       .  S
N764        N770   1.321   1_556  A
N765        C791   1.340       .  A
N765        N767   1.320   1_556  A
N765       Co781   2.086       .  S
N766        C780   1.341       .  A
N767        N795   1.324       .  A
N767       Co785   2.090       .  S
H768        C791   1.080       .  S
H769        C786   1.075       .  S
N771       Co785   2.089       .  S
N772        N784   1.326       .  A
N772        N788   1.317       .  A
N772       Co781   2.097       .  S
C773        N777   1.346   1_554  A
C773        C787   1.456       .  S
C773        C932   1.458       .  S
C774        C793   1.460       .  S
C774        H778   1.082       .  S
N775        C786   1.336       .  A
N775       Co785   2.080       .  S
C779        N795   1.352   1_556  A
C779        C791   1.465       .  S
C779       C1914   1.488       .  S
Co781      Cl792   2.456   1_556  S
N782        C793   1.345   1_554  A
C783       C1898   1.499   1_554  S
Co785      Cl792   2.432       .  S
C793        C857   1.461   1_556  S
C796        N814   1.346       .  A
C796        C833   1.455       .  S
N797        N814   1.322       .  A
N797        N819   1.319       .  A
N797       Co834   2.079       .  S
C798        N823   1.335       .  A
C798        C836   1.471   1_545  S
C798        H843   1.081       .  S
H799        C840   1.082       .  S
C800        N824   1.340       .  A
C800        C804   1.457       .  S
C800        H829   1.082       .  S
Co801       N819   2.071       .  S
Co801       N809   2.085       .  S
Co801       N841   2.096       .  S
Co801       N817   2.095       .  S
Co801      Cl845   2.449       .  S
N802        C840   1.342       .  A
N802        N809   1.319   1_545  A
N802       Co803   2.084       .  S
Co803       N806   2.067       .  S
Co803       N823   2.084       .  S
Co803       N810   2.098       .  S
Co803      Cl845   2.453   1_545  S
C804        N842   1.347       .  A
N805        N812   1.317   1_545  A
N805        N835   1.322       .  A
N805       Co838   2.073       .  S
N806        N824   1.318       .  A
N806        N842   1.324       .  A
N807        C836   1.353       .  A
N807        N817   1.324       .  A
H808        C833   1.081       .  S
N809        N830   1.326       .  A
N810        N828   1.318       .  A
N810        N815   1.327       .  A
C811        N815   1.356       .  A
C811        C839   1.461       .  S
C811       C1834   1.494       .  S
N812        C827   1.339       .  A
N812       Co834   2.066       .  S
C813        N841   1.343       .  A
C813        C816   1.473       .  S
C813        H847   1.080       .  S
C816        N837   1.353       .  A
C816       C1853   1.497       .  S
N817        N823   1.321   1_565  A
N818        C844   1.345       .  A
N818        N820   1.319   1_565  A
N818       Co834   2.088       .  S
N819        C833   1.341       .  A
N820        N848   1.321       .  A
N820       Co838   2.086       .  S
H821        C844   1.082       .  S
H822        C839   1.077       .  S
N824       Co838   2.088       .  S
N825        N837   1.321       .  A
N825        N841   1.321       .  A
N825       Co834   2.085       .  S
C826        N830   1.349       .  A
C826        C840   1.457   1_565  S
C826        C899   1.467       .  S
C827        C846   1.454       .  S
C827        H831   1.082       .  S
N828        C839   1.337       .  A
N828       Co838   2.074       .  S
C832        N848   1.348   1_565  A
C832        C844   1.469       .  S
C832       C1885   1.499       .  S
Co834      Cl845   2.449       .  S
N835        C846   1.346   1_545  A
C836       C1866   1.499       .  S
Co838      Cl845   2.429   1_545  S
C846        C902   1.454       .  S
C849        N867   1.349   1_556  A
C849        C886   1.455       .  S
N850        N867   1.325       .  A
N850        N872   1.320   1_554  A
N850       Co887   2.086       .  S
C851        N876   1.335       .  A
C851        C889   1.468   1_545  S
C851        H896   1.082       .  S
H852        C893   1.082       .  S
C853        N877   1.342       .  A
C853        C857   1.461       .  S
C853        H882   1.082       .  S
Co854       N872   2.075       .  S
Co854       N862   2.065       .  S
Co854       N894   2.085       .  S
Co854       N870   2.100       .  S
Co854      Cl898   2.458       .  S
N855        C893   1.341       .  A
N855        N862   1.318   1_545  A
N855       Co856   2.080       .  S
Co856       N859   2.068       .  S
Co856       N876   2.084       .  S
Co856       N863   2.088       .  S
Co856      Cl898   2.444   1_545  S
C857        N895   1.345   1_554  A
N858        N865   1.319       .  A
N858        N888   1.325   1_565  A
N858       Co891   2.085   1_565  S
N859        N877   1.319   1_556  A
N859        N895   1.323       .  A
N860        C889   1.356       .  A
N860        N870   1.327       .  A
H861        C886   1.082       .  S
N862        N883   1.322       .  A
N863        N881   1.318   1_556  A
N863        N868   1.326       .  A
C864        N868   1.354   1_554  A
C864        C892   1.469       .  S
C864       C1786   1.498       .  S
N865        C880   1.342       .  A
N865       Co887   2.083       .  S
C866        N894   1.342       .  A
C866        C869   1.468       .  S
C866        H900   1.079       .  S
C869        N890   1.354   1_556  A
C869       C1770   1.497       .  S
N870        N876   1.321   1_565  A
N871        C897   1.344       .  A
N871        N873   1.319       .  A
N871       Co887   2.094       .  S
N872        C886   1.340       .  A
N873        N901   1.323   1_565  A
N873       Co891   2.091   1_565  S
H874        C897   1.082       .  S
H875        C892   1.081       .  S
N877       Co891   2.092       .  S
N878        N890   1.321       .  A
N878        N894   1.321   1_554  A
N878       Co887   2.097       .  S
C879        N883   1.345       .  A
C879        C893   1.456   1_565  S
C880        C899   1.458       .  S
C880        H884   1.082       .  S
N881        C892   1.336       .  A
N881       Co891   2.080       .  S
C885        N901   1.353   1_565  A
C885        C897   1.471       .  S
C885       C1818   1.483       .  S
Co887      Cl898   2.446   1_554  S
N888        C899   1.349   1_545  A
C889       C1802   1.497       .  S
Co891      Cl898   2.439   1_544  S
C902        N920   1.347       .  A
C902        C939   1.453   1_565  S
N903        N920   1.323       .  A
N903        N925   1.317   1_565  A
N903       Co940   2.076       .  S
C904        N929   1.341       .  A
C904        C942   1.468   1_556  S
C904        H949   1.082       .  S
H905        C946   1.082       .  S
C906        N930   1.341       .  A
C906        C910   1.456       .  S
C906        H935   1.082       .  S
Co907       N925   2.064       .  S
Co907       N915   2.081       .  S
Co907       N947   2.091       .  S
Co907       N923   2.078       .  S
Co907      Cl951   2.449   1_544  S
N908        C946   1.339       .  A
N908        N915   1.319   1_556  A
N908       Co909   2.072       .  S
Co909       N912   2.091       .  S
Co909       N929   2.093       .  S
Co909       N916   2.091       .  S
Co909      Cl951   2.441   1_545  S
C910        N948   1.351   1_565  A
N911        N918   1.318   1_556  A
N911        N941   1.323       .  A
N911       Co944   2.068       .  S
N912        N930   1.319   1_545  A
N912        N948   1.327       .  A
N913        C942   1.347       .  A
N913        N923   1.321       .  A
H914        C939   1.082       .  S
N915        N936   1.324       .  A
N916        N934   1.322   1_545  A
N916        N921   1.323       .  A
C917        N921   1.353   1_565  A
C917        C945   1.468       .  S
C917       C1738   1.488   1_565  S
N918        C933   1.337       .  A
N918       Co940   2.071       .  S
C919        N947   1.344       .  A
C919        C922   1.471   1_545  S
C919        H953   1.082       .  S
C922        N943   1.346       .  A
C922       C1757   1.497       .  S
N923        N929   1.321   1_554  A
N924        C950   1.332       .  A
N924        N926   1.317   1_554  A
N924       Co940   2.070       .  S
N925        C939   1.338       .  A
N926        N954   1.328       .  A
N926       Co944   2.103       .  S
H927        C950   1.081       .  S
H928        C945   1.081       .  S
N930       Co944   2.081       .  S
N931        N943   1.321       .  A
N931        N947   1.318   1_565  A
N931       Co940   2.074       .  S
C932        N936   1.347       .  A
C932        C946   1.455   1_554  S
C933        C952   1.451   1_554  S
C933        H937   1.081       .  S
N934        C945   1.339       .  A
N934       Co944   2.089       .  S
C938        N954   1.359   1_554  A
C938        C950   1.466       .  S
C938       C1725   1.501       .  S
Co940      Cl951   2.423   1_554  S
N941        C952   1.347       .  A
C942       C1706   1.493       .  S
Co944      Cl951   2.462       .  S
C955        N973   1.347   1_455  A
C955        C992   1.460       .  S
C955       C1220   1.468       .  S
N956        N973   1.325       .  A
N956        N978   1.318   1_655  A
N956       Co993   2.073       .  S
C957        N982   1.334       .  A
C957        C995   1.469       .  S
C957       H1002   1.080       .  S
H958        C999   1.082       .  S
C959        N983   1.339       .  A
C959        C963   1.454   1_655  S
C959        H988   1.082       .  S
Co960       N978   2.091       .  S
Co960       N968   2.070       .  S
Co960      N1000   2.083       .  S
Co960       N976   2.091       .  S
Co960     Cl1004   2.446       .  S
N961        C999   1.335       .  A
N961        N968   1.319       .  A
N961       Co962   2.068       .  S
Co962       N965   2.077       .  S
Co962       N982   2.072       .  S
Co962       N969   2.080       .  S
Co962     Cl1004   2.430       .  S
C963       N1001   1.348       .  A
C963       C1167   1.458       .  S
N964        N971   1.319       .  A
N964        N994   1.323       .  A
N964       Co997   2.081       .  S
N965        N983   1.317   1_455  A
N965       N1001   1.324       .  A
N966        C995   1.355       .  A
N966        N976   1.326       .  A
H967        C992   1.082       .  S
N968        N989   1.322       .  A
N969        N987   1.319   1_455  A
N969        N974   1.322       .  A
C970        N974   1.351       .  A
C970        C998   1.470   1_455  S
C970       C1658   1.490       .  S
N971        C986   1.341       .  A
N971       Co993   2.076       .  S
C972       N1000   1.335       .  A
C972        C975   1.470       .  S
C972       H1006   1.082       .  S
C975        N996   1.353   1_455  A
C975       C1674   1.485       .  S
N976        N982   1.317       .  A
N977       C1003   1.341       .  A
N977        N979   1.320       .  A
N977       Co993   2.086       .  S
N978        C992   1.343       .  A
N979       N1007   1.324       .  A
N979       Co997   2.094       .  S
H980       C1003   1.082       .  S
H981        C998   1.079       .  S
N983       Co997   2.068       .  S
N984        N996   1.323       .  A
N984       N1000   1.319   1_655  A
N984       Co993   2.086       .  S
C985        N989   1.346       .  A
C985        C999   1.451       .  S
C985       C1061   1.449       .  S
C986       C1005   1.456       .  S
C986        H990   1.081       .  S
N987        C998   1.342       .  A
N987       Co997   2.092       .  S
C991       N1007   1.353       .  A
C991       C1003   1.463       .  S
C991       C1693   1.484       .  S
Co993     Cl1004   2.445   1_655  S
N994       C1005   1.347       .  A
C995       C1642   1.504       .  S
Co997     Cl1004   2.446   1_655  S
C1005      C1058   1.460       .  S
C1008      N1026   1.347       .  A
C1008      C1045   1.453   1_565  S
C1008      C1217   1.455       .  S
N1009      N1026   1.324       .  A
N1009      N1031   1.318   1_565  A
N1009     Co1046   2.079       .  S
C1010      N1035   1.342       .  A
C1010      C1048   1.474       .  S
C1010      H1055   1.081       .  S
H1011      C1052   1.082       .  S
C1012      N1036   1.338       .  A
C1012      C1016   1.454       .  S
C1012      H1041   1.082       .  S
Co1013     N1031   2.067       .  S
Co1013     N1021   2.082       .  S
Co1013     N1053   2.090       .  S
Co1013     N1029   2.083       .  S
Co1013    Cl1057   2.448   1_545  S
N1014      C1052   1.340       .  A
N1014      N1021   1.318       .  A
N1014     Co1015   2.072       .  S
Co1015     N1018   2.081       .  S
Co1015     N1035   2.095       .  S
Co1015     N1022   2.090       .  S
Co1015    Cl1057   2.443   1_545  S
C1016      N1054   1.347   1_565  A
C1016      C1250   1.457       .  S
N1017      N1024   1.318       .  A
N1017      N1047   1.325       .  A
N1017     Co1050   2.078       .  S
N1018      N1036   1.319   1_545  A
N1018      N1054   1.324       .  A
N1019      C1048   1.349       .  A
N1019      N1029   1.322       .  A
H1020      C1045   1.082       .  S
N1021      N1042   1.324       .  A
N1022      N1040   1.321   1_545  A
N1022      N1027   1.323       .  A
C1023      N1027   1.351   1_565  A
C1023      C1051   1.468       .  S
C1023      C1610   1.499       .  S
N1024      C1039   1.339       .  A
N1024     Co1046   2.075       .  S
C1025      N1053   1.342       .  A
C1025      C1028   1.466   1_545  S
C1025      H1059   1.082       .  S
C1028      N1049   1.349       .  A
C1028      C1594   1.491       .  S
N1029      N1035   1.320       .  A
N1030      C1056   1.337       .  A
N1030      N1032   1.318       .  A
N1030     Co1046   2.081       .  S
N1031      C1045   1.338       .  A
N1032      N1060   1.324       .  A
N1032     Co1050   2.092       .  S
H1033      C1056   1.080       .  S
H1034      C1051   1.081       .  S
N1036     Co1050   2.072       .  S
N1037      N1049   1.323       .  A
N1037      N1053   1.320   1_565  A
N1037     Co1046   2.084       .  S
C1038      N1042   1.348       .  A
C1038      C1052   1.454       .  S
C1038      C1114   1.460       .  S
C1039      C1058   1.454       .  S
C1039      H1043   1.082       .  S
N1040      C1051   1.340       .  A
N1040     Co1050   2.084       .  S
C1044      N1060   1.355       .  A
C1044      C1056   1.472       .  S
C1044      C1626   1.500       .  S
Co1046    Cl1057   2.437       .  S
N1047      C1058   1.348       .  A
C1048      C1578   1.501       .  S
Co1050    Cl1057   2.452       .  S
C1061      N1079   1.345       .  A
C1061      C1098   1.452       .  S
N1062      N1079   1.320       .  A
N1062      N1084   1.318       .  A
N1062     Co1099   2.067       .  S
C1063      N1088   1.334       .  A
C1063      C1101   1.466   1_545  S
C1063      H1108   1.082       .  S
H1064      C1105   1.082       .  S
C1065      N1089   1.340       .  A
C1065      C1069   1.456       .  S
C1065      H1094   1.082       .  S
Co1066     N1084   2.068       .  S
Co1066     N1074   2.063       .  S
Co1066     N1106   2.086       .  S
Co1066     N1082   2.098       .  S
Co1066    Cl1110   2.462       .  S
N1067      C1105   1.341       .  A
N1067      N1074   1.318   1_545  A
N1067     Co1068   2.088       .  S
Co1068     N1071   2.074       .  S
Co1068     N1088   2.081       .  S
Co1068     N1075   2.084       .  S
Co1068    Cl1110   2.432   1_545  S
C1069      N1107   1.347       .  A
C1069      C1122   1.459       .  S
N1070      N1077   1.319   1_545  A
N1070      N1100   1.324       .  A
N1070     Co1103   2.074       .  S
N1071      N1089   1.319       .  A
N1071      N1107   1.324       .  A
N1072      C1101   1.357       .  A
N1072      N1082   1.327       .  A
H1073      C1098   1.082       .  S
N1074      N1095   1.323       .  A
N1075      N1093   1.320       .  A
N1075      N1080   1.323       .  A
C1076      N1080   1.350       .  A
C1076      C1104   1.474       .  S
C1076      C1530   1.498       .  S
N1077      C1092   1.341       .  A
N1077     Co1099   2.083       .  S
C1078      N1106   1.339       .  A
C1078      C1081   1.475       .  S
C1078      H1112   1.074       .  S
C1081      N1102   1.356       .  A
C1081      C1546   1.506       .  S
N1082      N1088   1.320   1_565  A
N1083      C1109   1.339       .  A
N1083      N1085   1.321   1_565  A
N1083     Co1099   2.076       .  S
N1084      C1098   1.338       .  A
N1085      N1113   1.325       .  A
N1085     Co1103   2.101       .  S
H1086      C1109   1.081       .  S
H1087      C1104   1.081       .  S
N1089     Co1103   2.080       .  S
N1090      N1102   1.323       .  A
N1090      N1106   1.319       .  A
N1090     Co1099   2.094       .  S
C1091      N1095   1.344       .  A
C1091      C1105   1.459   1_565  S
C1091      C1270   1.459       .  S
C1092      C1111   1.458       .  S
C1092      H1096   1.082       .  S
N1093      C1104   1.342       .  A
N1093     Co1103   2.093       .  S
C1097      N1113   1.354   1_565  A
C1097      C1109   1.462       .  S
C1097      C1562   1.490       .  S
Co1099    Cl1110   2.437       .  S
N1100      C1111   1.347   1_545  A
C1101      C1514   1.496   1_565  S
Co1103    Cl1110   2.454   1_545  S
C1111      C1197   1.462       .  S
C1114      N1132   1.348       .  A
C1114      C1151   1.454       .  S
N1115      N1132   1.324       .  A
N1115      N1137   1.319       .  A
N1115     Co1152   2.084       .  S
C1116      N1141   1.331       .  A
C1116      C1154   1.467       .  S
C1116      H1161   1.072       .  S
H1117      C1158   1.081       .  S
C1118      N1142   1.341       .  A
C1118      C1122   1.456       .  S
C1118      H1147   1.082       .  S
Co1119     N1137   2.072       .  S
Co1119     N1127   2.067       .  S
Co1119     N1159   2.095       .  S
Co1119     N1135   2.102       .  S
Co1119    Cl1163   2.467   1_655  S
N1120      C1158   1.340       .  A
N1120      N1127   1.318   1_455  A
N1120     Co1121   2.081       .  S
Co1121     N1124   2.069       .  S
Co1121     N1141   2.076       .  S
Co1121     N1128   2.080       .  S
Co1121    Cl1163   2.430       .  S
C1122      N1160   1.346       .  A
N1123      N1130   1.318   1_455  A
N1123      N1153   1.322       .  A
N1123     Co1156   2.059       .  S
N1124      N1142   1.318       .  A
N1124      N1160   1.323       .  A
N1125      C1154   1.361   1_655  A
N1125      N1135   1.327       .  A
H1126      C1151   1.082       .  S
N1127      N1148   1.323       .  A
N1128      N1146   1.319       .  A
N1128      N1133   1.324       .  A
C1129      N1133   1.351       .  A
C1129      C1157   1.470       .  S
C1129      C1482   1.490       .  S
N1130      C1145   1.339       .  A
N1130     Co1152   2.082       .  S
C1131      N1159   1.345       .  A
C1131      C1134   1.473       .  S
C1131      H1165   1.081       .  S
C1134      N1155   1.345       .  A
C1134      C1466   1.500       .  S
N1135      N1141   1.318   1_655  A
N1136      C1162   1.336       .  A
N1136      N1138   1.319   1_655  A
N1136     Co1152   2.086       .  S
N1137      C1151   1.339       .  A
N1138      N1166   1.327       .  A
N1138     Co1156   2.090       .  S
H1139      C1162   1.082       .  S
H1140      C1157   1.082       .  S
N1142     Co1156   2.082       .  S
N1143      N1155   1.320       .  A
N1143      N1159   1.321       .  A
N1143     Co1152   2.082       .  S
C1144      N1148   1.345   1_455  A
C1144      C1158   1.456       .  S
C1144      C1175   1.456       .  S
C1145      C1164   1.457   1_655  S
C1145      H1149   1.082       .  S
N1146      C1157   1.335       .  A
N1146     Co1156   2.080       .  S
C1150      N1166   1.355       .  A
C1150      C1162   1.468   1_455  S
C1150      C1453   1.493       .  S
Co1152    Cl1163   2.422   1_655  S
N1153      C1164   1.344       .  A
C1154      C1501   1.506       .  S
Co1156    Cl1163   2.454       .  S
C1164      C1228   1.454       .  S
C1167      N1185   1.347   1_455  A
C1167      C1204   1.454       .  S
N1168      N1185   1.323       .  A
N1168      N1190   1.319   1_655  A
N1168     Co1205   2.080       .  S
C1169      N1194   1.336       .  A
C1169      C1207   1.469   1_545  S
C1169      H1214   1.081       .  S
H1170      C1211   1.082       .  S
C1171      N1195   1.340       .  A
C1171      C1175   1.455   1_655  S
C1171      H1200   1.081       .  S
Co1172     N1190   2.072       .  S
Co1172     N1180   2.073       .  S
Co1172     N1212   2.092       .  S
Co1172     N1188   2.101       .  S
Co1172    Cl1216   2.453       .  S
N1173      C1211   1.341       .  A
N1173      N1180   1.318   1_545  A
N1173     Co1174   2.084       .  S
Co1174     N1177   2.071       .  S
Co1174     N1194   2.083       .  S
Co1174     N1181   2.099       .  S
Co1174    Cl1216   2.440   1_545  S
C1175      N1213   1.346       .  A
N1176      N1183   1.317       .  A
N1176      N1206   1.322   1_565  A
N1176     Co1209   2.075   1_565  S
N1177      N1195   1.317   1_455  A
N1177      N1213   1.323       .  A
N1178      C1207   1.356       .  A
N1178      N1188   1.327       .  A
H1179      C1204   1.081       .  S
N1180      N1201   1.324       .  A
N1181      N1199   1.320   1_455  A
N1181      N1186   1.326       .  A
C1182      N1186   1.354       .  A
C1182      C1210   1.463   1_455  S
C1182      C1437   1.488   1_455  S
N1183      C1198   1.339       .  A
N1183     Co1205   2.065       .  S
C1184      N1212   1.340       .  A
C1184      C1187   1.470       .  S
C1184      H1218   1.081       .  S
C1187      N1208   1.351   1_455  A
C1187      C1405   1.490       .  S
N1188      N1194   1.321   1_565  A
N1189      C1215   1.344       .  A
N1189      N1191   1.319       .  A
N1189     Co1205   2.089       .  S
N1190      C1204   1.340       .  A
N1191      N1219   1.321   1_565  A
N1191     Co1209   2.087   1_565  S
H1192      C1215   1.078       .  S
H1193      C1210   1.082       .  S
N1195     Co1209   2.075       .  S
N1196      N1208   1.321       .  A
N1196      N1212   1.322   1_655  A
N1196     Co1205   2.083       .  S
C1197      N1201   1.347       .  A
C1197      C1211   1.457   1_565  S
C1198      C1217   1.454       .  S
C1198      H1202   1.081       .  S
N1199      C1210   1.341       .  A
N1199     Co1209   2.085       .  S
C1203      N1219   1.354   1_565  A
C1203      C1215   1.470       .  S
C1203      C1421   1.495       .  S
Co1205    Cl1216   2.444   1_655  S
N1206      C1217   1.346   1_545  A
C1207      C1386   1.500       .  S
Co1209    Cl1216   2.439   1_645  S
C1220      N1238   1.346       .  A
C1220      C1257   1.462   1_455  S
N1221      N1238   1.324       .  A
N1221      N1243   1.319   1_455  A
N1221     Co1258   2.068       .  S
C1222      N1247   1.339       .  A
C1222      C1260   1.474   1_545  S
C1222      H1267   1.073       .  S
H1223      C1264   1.082       .  S
C1224      N1248   1.341       .  A
C1224      C1228   1.459       .  S
C1224      H1253   1.082       .  S
Co1225     N1243   2.098       .  S
Co1225     N1233   2.072       .  S
Co1225     N1265   2.073       .  S
Co1225     N1241   2.089       .  S
Co1225    Cl1269   2.429   1_655  S
N1226      C1264   1.340       .  A
N1226      N1233   1.318   1_545  A
N1226     Co1227   2.077       .  S
Co1227     N1230   2.055       .  S
Co1227     N1247   2.071       .  S
Co1227     N1234   2.091       .  S
Co1227    Cl1269   2.451   1_645  S
C1228      N1266   1.342   1_455  A
N1229      N1236   1.320   1_545  A
N1229      N1259   1.322       .  A
N1229     Co1262   2.065       .  S
N1230      N1248   1.318   1_655  A
N1230      N1266   1.321       .  A
N1231      C1260   1.356       .  A
N1231      N1241   1.321       .  A
H1232      C1257   1.082       .  S
N1233      N1254   1.322       .  A
N1234      N1252   1.321   1_655  A
N1234      N1239   1.324       .  A
C1235      N1239   1.352   1_455  A
C1235      C1263   1.470       .  S
C1235      C1338   1.493       .  S
N1236      C1251   1.343       .  A
N1236     Co1258   2.094       .  S
C1237      N1265   1.333       .  A
C1237      C1240   1.463   1_655  S
C1237      H1271   1.074       .  S
C1240      N1261   1.361       .  A
C1240      C1370   1.501   1_455  S
N1241      N1247   1.316   1_565  A
N1242      C1268   1.341       .  A
N1242      N1244   1.322   1_565  A
N1242     Co1258   2.092       .  S
N1243      C1257   1.344       .  A
N1244      N1272   1.326       .  A
N1244     Co1262   2.098       .  S
H1245      C1268   1.078       .  S
H1246      C1263   1.081       .  S
N1248     Co1262   2.083       .  S
N1249      N1261   1.327       .  A
N1249      N1265   1.317   1_455  A
N1249     Co1258   2.106       .  S
C1250      N1254   1.347       .  A
C1250      C1264   1.456   1_565  S
C1251      C1270   1.460       .  S
C1251      H1255   1.082       .  S
N1252      C1263   1.341       .  A
N1252     Co1262   2.091       .  S
C1256      N1272   1.353   1_565  A
C1256      C1268   1.466       .  S
C1256      C1354   1.495       .  S
Co1258    Cl1269   2.457       .  S
N1259      C1270   1.344   1_545  A
C1260      C1322   1.508       .  S
Co1262    Cl1269   2.445   1_545  S
C1273      C1274   1.396   1_455  D
C1273      C2205   1.502       .  S
C1273      C2269   1.560       .  S
C1274      C1434   1.561       .  S
C1274      C1498   1.499   1_655  S
C1275      C1276   1.380       .  D
C1275      C1754   1.509       .  S
C1275      C1882   1.505       .  S
C1276      C1418   1.516       .  S
C1276      C1597   1.518       .  S
C1277      C1278   1.395       .  D
C1277      C2141   1.521       .  S
C1277      C2253   1.515       .  S
C1278      C1402   1.516       .  S
C1278      C1661   1.525       .  S
C1279      C1280   1.400   1_545  D
C1279      C1821   1.556       .  S
C1279      C1869   1.506   1_545  S
C1280      C1389   1.512       .  S
C1280      C1565   1.531       .  S
C1281      C1282   1.378       .  D
C1281      C2522   1.525       .  S
C1281      C2826   1.513       .  S
C1282      C1485   1.498       .  S
C1282      C1533   1.513       .  S
C1283      C1284   1.391       .  D
C1283      C2634   1.550       .  S
C1283      C2845   1.523       .  S
C1284      C1469   1.511       .  S
C1284      C1581   1.514       .  S
C1285      C1286   1.380       .  D
C1285      C2509   1.513       .  S
C1285      C2698   1.514       .  S
C1286      C1549   1.515       .  S
C1286      C1645   1.510       .  S
C1287      C1288   1.384       .  D
C1287      C1805   1.514       .  S
C1287      C1981   1.508       .  S
C1288      C1357   1.524       .  S
C1288      C1517   1.518       .  S
C1289      C1290   1.376       .  D
C1289      C2186   1.507   1_554  S
C1289      C2330   1.505       .  S
C1290      C1789   1.514       .  S
C1290      C1917   1.517       .  S
C1291      C1292   1.378       .  D
C1291      C2106   1.517       .  S
C1291      C2317   1.508   1_556  S
C1292      C1773   1.505       .  S
C1292      C2029   1.506       .  S
C1293      C1294   1.382       .  D
C1293      C2717   1.514       .  S
C1293      C2781   1.505       .  S
C1294      C1850   1.515       .  S
C1294      C2061   1.511       .  S
C1295      C1296   1.378       .  D
C1295      C2765   1.510       .  S
C1295      C2810   1.511       .  S
C1296      C1837   1.510       .  S
C1296      C1949   1.509       .  S
C1297      C1298   1.375       .  D
C1297      C2589   1.508       .  S
C1297      C2797   1.508       .  S
C1298      C1933   1.509       .  S
C1298      C1997   1.509       .  S
C1299      C1300   1.377       .  D
C1299      C2173   1.509       .  S
C1299      C2365   1.516       .  S
C1300      C1341   1.512   1_655  S
C1300      C1450   1.508       .  S
C1301      C1302   1.377   1_556  D
C1301      C2157   1.511       .  S
C1301      C2413   1.506   1_556  S
C1302      C1709   1.512       .  S
C1302      C1901   1.506       .  S
C1303      C1304   1.391       .  D
C1303      C2493   1.523       .  S
C1303      C2746   1.515       .  S
C1304      C2237   1.531       .  S
C1304      C2301   1.522       .  S
C1305      C1306   1.375       .  D
C1305      C2650   1.505       .  S
C1305      C2733   1.509       .  S
C1306      C2221   1.513       .  S
C1306      C2445   1.505       .  S
C1307      C1308   1.377       .  D
C1307      C2285   1.506       .  S
C1307      C2349   1.509       .  S
C1308      C2477   1.507       .  S
C1308      C2573   1.511       .  S
C1309      C1310   1.385       .  D
C1309      C2122   1.511       .  S
C1309      C2381   1.516       .  S
C1310      C1373   1.502       .  S
C1310      C1677   1.526       .  S
C1311      C1312   1.377       .  D
C1311      C1741   1.509       .  S
C1311      C1965   1.509       .  S
C1312      C1325   1.506       .  S
C1312      C1613   1.510       .  S
C1313      C1314   1.391       .  D
C1313      C2093   1.512       .  S
C1313      C2429   1.509       .  S
C1314      C1722   1.523       .  S
C1314      C2045   1.531       .  S
C1315      C1316   1.389       .  D
C1315      C2557   1.509       .  S
C1315      C2621   1.516       .  S
C1316      C2397   1.532       .  S
C1316      C2461   1.522       .  S
C1317      C1318   1.386       .  D
C1317      C2605   1.500       .  S
C1317      C2669   1.524       .  S
C1318      C1629   1.506       .  S
C1318      C1690   1.543       .  S
C1319      C1320   1.390       .  D
C1319      C2541   1.526       .  S
C1319      C2685   1.511       .  S
C1320      C2013   1.533       .  S
C1320      C2074   1.544       .  S
C1321      H1328   1.084       .  S
C1321      C1322   1.409       .  A
C1321      C1326   1.401       .  A
C1322      C1323   1.429   1_565  A
C1323      C1324   1.412       .  A
C1323      C1330   1.516       .  S
C1324      H1329   1.081       .  S
C1324      C1325   1.404   1_545  A
C1325      C1326   1.416       .  A
C1326      C1327   1.514       .  S
C1327      F1331   1.382       .  S
C1327      F1332   1.372       .  S
C1327      F1333   1.385       .  S
C1330      F1334   1.383       .  S
C1330      F1335   1.383       .  S
C1330      F1336   1.385       .  S
C1337      H1344   1.082       .  S
C1337      C1338   1.405       .  A
C1337      C1342   1.404       .  A
C1338      C1339   1.419   1_455  A
C1339      C1340   1.411       .  A
C1339      C1346   1.517       .  S
C1340      H1345   1.080       .  S
C1340      C1341   1.408   1_655  A
C1341      C1342   1.418       .  A
C1342      C1343   1.517       .  S
C1343      F1347   1.385       .  S
C1343      F1348   1.382       .  S
C1343      F1349   1.382       .  S
C1346      F1350   1.383       .  S
C1346      F1351   1.382       .  S
C1346      F1352   1.385       .  S
C1353      H1360   1.085       .  S
C1353      C1354   1.403   1_545  A
C1353      C1358   1.415       .  A
C1354      C1355   1.422       .  A
C1355      C1356   1.403       .  A
C1355      C1362   1.523       .  S
C1356      H1361   1.081       .  S
C1356      C1357   1.408   1_565  A
C1357      C1358   1.433       .  A
C1358      C1359   1.516       .  S
C1359      F1363   1.384       .  S
C1359      F1364   1.370       .  S
C1359      F1365   1.383       .  S
C1362      F1366   1.381       .  S
C1362      F1367   1.380       .  S
C1362      F1368   1.386       .  S
C1369      H1376   1.085       .  S
C1369      C1370   1.408   1_455  A
C1369      C1374   1.413       .  A
C1370      C1371   1.430       .  A
C1371      C1372   1.401       .  A
C1371      C1378   1.523       .  S
C1372      H1377   1.083       .  S
C1372      C1373   1.400   1_655  A
C1373      C1374   1.426       .  A
C1374      C1375   1.518       .  S
C1375      F1379   1.384       .  S
C1375      F1380   1.377       .  S
C1375      F1381   1.382       .  S
C1378      F1382   1.382       .  S
C1378      F1383   1.383       .  S
C1378      F1384   1.385       .  S
C1385      H1392   1.078       .  S
C1385      C1386   1.406   1_545  A
C1385      C1390   1.404       .  A
C1386      C1387   1.419       .  A
C1387      C1388   1.416       .  A
C1387      C1394   1.517       .  S
C1388      H1393   1.079       .  S
C1388      C1389   1.411       .  A
C1389      C1390   1.420   1_565  A
C1390      C1391   1.517       .  S
C1391      F1395   1.385       .  S
C1391      F1396   1.379       .  S
C1391      F1397   1.375       .  S
C1394      F1398   1.383       .  S
C1394      F1399   1.382       .  S
C1394      F1400   1.384       .  S
C1401      H1408   1.071       .  S
C1401      C1402   1.411       .  A
C1401      C1406   1.406       .  A
C1402      C1403   1.425   1_455  A
C1403      C1404   1.407       .  A
C1403      C1410   1.518       .  S
C1404      H1409   1.082       .  S
C1404      C1405   1.406   1_655  A
C1405      C1406   1.412       .  A
C1406      C1407   1.518       .  S
C1407      F1411   1.382       .  S
C1407      F1412   1.384       .  S
C1407      F1413   1.382       .  S
C1410      F1414   1.382       .  S
C1410      F1415   1.374       .  S
C1410      F1416   1.385       .  S
C1417      H1424   1.082       .  S
C1417      C1418   1.413       .  A
C1417      C1422   1.415       .  A
C1418      C1419   1.425   1_565  A
C1419      C1420   1.399       .  A
C1419      C1426   1.517       .  S
C1420      H1425   1.084       .  S
C1420      C1421   1.403   1_545  A
C1421      C1422   1.418       .  A
C1422      C1423   1.516       .  S
C1423      F1427   1.385       .  S
C1423      F1428   1.381       .  S
C1423      F1429   1.383       .  S
C1426      F1430   1.383       .  S
C1426      F1431   1.369       .  S
C1426      F1432   1.385       .  S
C1433      H1440   1.070       .  S
C1433      C1434   1.417       .  A
C1433      C1438   1.397   1_655  A
C1434      C1435   1.430       .  A
C1435      C1436   1.417       .  A
C1435      C1442   1.512       .  S
C1436      H1441   1.085       .  S
C1436      C1437   1.402       .  A
C1437      C1438   1.416   1_655  A
C1438      C1439   1.521       .  S
C1439      F1443   1.386       .  S
C1439      F1444   1.380       .  S
C1439      F1445   1.377   1_455  S
C1442      F1446   1.382       .  S
C1442      F1447   1.379       .  S
C1442      F1448   1.385       .  S
C1449      H1456   1.081       .  S
C1449      C1450   1.411   1_455  A
C1449      C1454   1.417       .  A
C1450      C1451   1.424       .  A
C1451      C1452   1.398       .  A
C1451      C1458   1.521       .  S
C1452      H1457   1.083       .  S
C1452      C1453   1.401   1_655  A
C1453      C1454   1.417       .  A
C1454      C1455   1.515       .  S
C1455      F1459   1.384       .  S
C1455      F1460   1.383       .  S
C1455      F1461   1.383       .  S
C1458      F1462   1.385       .  S
C1458      F1463   1.375       .  S
C1458      F1464   1.382       .  S
C1465      H1472   1.084       .  S
C1465      C1466   1.404       .  A
C1465      C1470   1.411       .  A
C1466      C1467   1.427       .  A
C1467      C1468   1.405       .  A
C1467      C1474   1.524       .  S
C1468      H1473   1.079       .  S
C1468      C1469   1.406       .  A
C1469      C1470   1.426       .  A
C1470      C1471   1.510       .  S
C1471      F1475   1.383       .  S
C1471      F1476   1.365       .  S
C1471      F1477   1.384       .  S
C1474      F1478   1.384       .  S
C1474      F1479   1.383       .  S
C1474      F1480   1.385       .  S
C1481      H1488   1.082       .  S
C1481      C1482   1.401       .  A
C1481      C1486   1.396       .  A
C1482      C1483   1.417       .  A
C1483      C1484   1.415       .  A
C1483      C1490   1.517       .  S
C1484      H1489   1.080       .  S
C1484      C1485   1.410       .  A
C1485      C1486   1.424       .  A
C1486      C1487   1.524       .  S
C1487      F1491   1.386       .  S
C1487      F1492   1.375       .  S
C1487      F1493   1.382       .  S
C1490      F1494   1.382       .  S
C1490      F1495   1.383       .  S
C1490      F1496   1.384       .  S
C1497      H1504   1.082       .  S
C1497      C1498   1.400       .  A
C1497      C1502   1.403       .  A
C1498      C1499   1.411   1_455  A
C1499      C1500   1.413       .  A
C1499      C1506   1.515       .  S
C1500      H1505   1.083       .  S
C1500      C1501   1.413   1_655  A
C1501      C1502   1.434       .  A
C1502      C1503   1.521       .  S
C1503      F1507   1.386       .  S
C1503      F1508   1.383       .  S
C1503      F1509   1.382       .  S
C1506      F1510   1.382       .  S
C1506      F1511   1.382       .  S
C1506      F1512   1.384       .  S
C1513      H1520   1.082       .  S
C1513      C1514   1.404       .  A
C1513      C1518   1.399       .  A
C1514      C1515   1.416   1_545  A
C1515      C1516   1.415       .  A
C1515      C1522   1.516       .  S
C1516      H1521   1.080       .  S
C1516      C1517   1.414   1_565  A
C1517      C1518   1.423       .  A
C1518      C1519   1.518       .  S
C1519      F1523   1.385       .  S
C1519      F1524   1.371       .  S
C1519      F1525   1.383       .  S
C1522      F1526   1.383       .  S
C1522      F1527   1.382       .  S
C1522      F1528   1.385       .  S
C1529      H1536   1.081       .  S
C1529      C1530   1.406       .  A
C1529      C1534   1.404       .  A
C1530      C1531   1.424       .  A
C1531      C1532   1.412       .  A
C1531      C1538   1.518       .  S
C1532      H1537   1.080       .  S
C1532      C1533   1.406       .  A
C1533      C1534   1.418       .  A
C1534      C1535   1.517       .  S
C1535      F1539   1.385       .  S
C1535      F1540   1.381       .  S
C1535      F1541   1.382       .  S
C1538      F1542   1.383       .  S
C1538      F1543   1.383       .  S
C1538      F1544   1.385       .  S
C1545      H1552   1.084       .  S
C1545      C1546   1.408       .  A
C1545      C1550   1.410       .  A
C1546      C1547   1.421       .  A
C1547      C1548   1.408       .  A
C1547      C1554   1.514       .  S
C1548      H1553   1.080       .  S
C1548      C1549   1.407       .  A
C1549      C1550   1.423       .  A
C1550      C1551   1.511       .  S
C1551      F1555   1.385       .  S
C1551      F1556   1.380       .  S
C1551      F1557   1.376       .  S
C1554      F1558   1.382       .  S
C1554      F1559   1.384       .  S
C1554      F1560   1.385       .  S
C1561      H1568   1.083       .  S
C1561      C1562   1.404       .  A
C1561      C1566   1.409       .  A
C1562      C1563   1.408   1_565  A
C1563      C1564   1.410       .  A
C1563      C1570   1.517       .  S
C1564      H1569   1.068       .  S
C1564      C1565   1.409   1_545  A
C1565      C1566   1.427       .  A
C1566      C1567   1.514       .  S
C1567      F1571   1.385       .  S
C1567      F1572   1.380       .  S
C1567      F1573   1.382       .  S
C1570      F1574   1.385       .  S
C1570      F1575   1.382       .  S
C1570      F1576   1.380       .  S
C1577      H1584   1.083       .  S
C1577      C1578   1.402       .  A
C1577      C1582   1.408       .  A
C1578      C1579   1.423       .  A
C1579      C1580   1.407       .  A
C1579      C1586   1.519       .  S
C1580      H1585   1.082       .  S
C1580      C1581   1.403       .  A
C1581      C1582   1.430       .  A
C1582      C1583   1.514       .  S
C1583      F1587   1.383       .  S
C1583      F1588   1.366       .  S
C1583      F1589   1.384       .  S
C1586      F1590   1.384       .  S
C1586      F1591   1.382       .  S
C1586      F1592   1.385       .  S
C1593      H1600   1.085       .  S
C1593      C1594   1.402   1_545  A
C1593      C1598   1.413       .  A
C1594      C1595   1.421       .  A
C1595      C1596   1.402       .  A
C1595      C1602   1.524       .  S
C1596      H1601   1.082       .  S
C1596      C1597   1.409       .  A
C1597      C1598   1.432   1_565  A
C1598      C1599   1.519       .  S
C1599      F1603   1.385       .  S
C1599      F1604   1.383       .  S
C1599      F1605   1.372       .  S
C1602      F1606   1.383       .  S
C1602      F1607   1.383       .  S
C1602      F1608   1.385       .  S
C1609      H1616   1.084       .  S
C1609      C1610   1.405       .  A
C1609      C1614   1.408       .  A
C1610      C1611   1.424   1_565  A
C1611      C1612   1.407       .  A
C1611      C1618   1.521       .  S
C1612      H1617   1.080       .  S
C1612      C1613   1.406   1_545  A
C1613      C1614   1.424       .  A
C1614      C1615   1.513       .  S
C1615      F1619   1.384       .  S
C1615      F1620   1.370       .  S
C1615      F1621   1.383       .  S
C1618      F1622   1.384       .  S
C1618      F1623   1.383       .  S
C1618      F1624   1.385       .  S
C1625      H1632   1.080       .  S
C1625      C1626   1.406       .  A
C1625      C1630   1.403       .  A
C1626      C1627   1.421       .  A
C1627      C1628   1.408       .  A
C1627      C1634   1.516       .  S
C1628      H1633   1.084       .  S
C1628      C1629   1.403       .  A
C1629      C1630   1.424       .  A
C1630      C1631   1.523       .  S
C1631      F1635   1.386       .  S
C1631      F1636   1.381       .  S
C1631      F1637   1.377       .  S
C1634      F1638   1.384       .  S
C1634      F1639   1.382       .  S
C1634      F1640   1.385       .  S
C1641      H1648   1.080       .  S
C1641      C1642   1.404       .  A
C1641      C1646   1.401       .  A
C1642      C1643   1.424       .  A
C1643      C1644   1.414       .  A
C1643      C1650   1.519       .  S
C1644      H1649   1.079       .  S
C1644      C1645   1.408       .  A
C1645      C1646   1.422       .  A
C1646      C1647   1.514       .  S
C1647      F1651   1.383       .  S
C1647      F1652   1.369       .  S
C1647      F1653   1.384       .  S
C1650      F1654   1.383       .  S
C1650      F1655   1.383       .  S
C1650      F1656   1.385       .  S
C1657      H1664   1.083       .  S
C1657      C1658   1.402       .  A
C1657      C1662   1.407       .  A
C1658      C1659   1.409   1_455  A
C1659      C1660   1.408       .  A
C1659      C1666   1.517       .  S
C1660      H1665   1.067       .  S
C1660      C1661   1.412   1_655  A
C1661      C1662   1.431       .  A
C1662      C1663   1.518       .  S
C1663      F1667   1.381       .  S
C1663      F1668   1.373       .  S
C1663      F1669   1.386       .  S
C1666      F1670   1.380       .  S
C1666      F1671   1.384       .  S
C1666      F1672   1.383       .  S
C1673      H1680   1.080       .  S
C1673      C1674   1.399       .  A
C1673      C1678   1.400       .  A
C1674      C1675   1.409   1_455  A
C1675      C1676   1.410       .  A
C1675      C1682   1.517       .  S
C1676      H1681   1.076       .  S
C1676      C1677   1.416   1_655  A
C1677      C1678   1.432       .  A
C1678      C1679   1.522       .  S
C1679      F1683   1.386       .  S
C1679      F1684   1.374       .  S
C1679      F1685   1.380       .  S
C1682      F1686   1.384       .  S
C1682      F1687   1.382       .  S
C1682      F1688   1.385       .  S
C1689      H1696   1.070       .  S
C1689      C1690   1.414       .  A
C1689      C1694   1.391       .  A
C1690      C1691   1.437       .  A
C1691      C1692   1.418       .  A
C1691      C1698   1.511       .  S
C1692      H1697   1.085       .  S
C1692      C1693   1.401       .  A
C1693      C1694   1.413       .  A
C1694      C1695   1.522       .  S
C1695      F1699   1.386       .  S
C1695      F1700   1.380       .  S
C1695      F1701   1.378       .  S
C1698      F1702   1.382       .  S
C1698      F1703   1.372       .  S
C1698      F1704   1.385       .  S
C1705      H1712   1.085       .  S
C1705      C1706   1.403   1_556  A
C1705      C1710   1.409       .  A
C1706      C1707   1.425       .  A
C1707      C1708   1.404       .  A
C1707      C1714   1.525       .  S
C1708      H1713   1.076       .  S
C1708      C1709   1.404       .  A
C1709      C1710   1.426   1_554  A
C1710      C1711   1.514       .  S
C1711      F1715   1.385       .  S
C1711      F1716   1.383       .  S
C1711      F1717   1.372       .  S
C1714      F1718   1.383       .  S
C1714      F1719   1.384       .  S
C1714      F1720   1.385       .  S
C1721      H1728   1.076       .  S
C1721      C1722   1.416   1_556  A
C1721      C1726   1.416       .  A
C1722      C1723   1.425       .  A
C1723      C1724   1.400       .  A
C1723      C1730   1.515       .  S
C1724      H1729   1.080       .  S
C1724      C1725   1.403       .  A
C1725      C1726   1.416   1_554  A
C1726      C1727   1.518       .  S
C1727      F1731   1.382       .  S
C1727      F1732   1.383       .  S
C1727      F1733   1.382       .  S
C1730      F1734   1.384       .  S
C1730      F1735   1.360       .  S
C1730      F1736   1.384       .  S
C1737      H1744   1.083       .  S
C1737      C1738   1.406       .  A
C1737      C1742   1.405       .  A
C1738      C1739   1.415   1_545  A
C1739      C1740   1.405       .  A
C1739      C1746   1.516       .  S
C1740      H1745   1.079       .  S
C1740      C1741   1.408       .  A
C1741      C1742   1.420   1_565  A
C1742      C1743   1.517       .  S
C1743      F1747   1.382       .  S
C1743      F1748   1.382       .  S
C1743      F1749   1.385       .  S
C1746      F1750   1.383       .  S
C1746      F1751   1.383       .  S
C1746      F1752   1.384       .  S
C1753      H1760   1.081       .  S
C1753      C1754   1.403       .  A
C1753      C1758   1.406       .  A
C1754      C1755   1.424   1_565  A
C1755      C1756   1.411       .  A
C1755      C1762   1.518       .  S
C1756      H1761   1.083       .  S
C1756      C1757   1.404   1_545  A
C1757      C1758   1.427       .  A
C1758      C1759   1.524       .  S
C1759      F1763   1.385       .  S
C1759      F1764   1.383       .  S
C1759      F1765   1.384       .  S
C1762      F1766   1.381       .  S
C1762      F1767   1.376       .  S
C1762      F1768   1.385       .  S
C1769      H1776   1.083       .  S
C1769      C1770   1.404   1_554  A
C1769      C1774   1.399       .  A
C1770      C1771   1.422       .  A
C1771      C1772   1.414       .  A
C1771      C1778   1.516       .  S
C1772      H1777   1.081       .  S
C1772      C1773   1.408       .  A
C1773      C1774   1.420   1_556  A
C1774      C1775   1.517       .  S
C1775      F1779   1.382       .  S
C1775      F1780   1.374       .  S
C1775      F1781   1.385       .  S
C1778      F1782   1.383       .  S
C1778      F1783   1.383       .  S
C1778      F1784   1.385       .  S
C1785      H1792   1.081       .  S
C1785      C1786   1.404       .  A
C1785      C1790   1.400       .  A
C1786      C1787   1.419   1_554  A
C1787      C1788   1.414       .  A
C1787      C1794   1.518       .  S
C1788      H1793   1.082       .  S
C1788      C1789   1.413   1_556  A
C1789      C1790   1.422       .  A
C1790      C1791   1.517       .  S
C1791      F1795   1.384       .  S
C1791      F1796   1.369       .  S
C1791      F1797   1.383       .  S
C1794      F1798   1.383       .  S
C1794      F1799   1.383       .  S
C1794      F1800   1.385       .  S
C1801      H1808   1.080       .  S
C1801      C1802   1.403   1_545  A
C1801      C1806   1.400       .  A
C1802      C1803   1.416       .  A
C1803      C1804   1.416       .  A
C1803      C1810   1.516       .  S
C1804      H1809   1.082       .  S
C1804      C1805   1.412   1_565  A
C1805      C1806   1.427       .  A
C1806      C1807   1.524       .  S
C1807      F1811   1.385       .  S
C1807      F1812   1.375       .  S
C1807      F1813   1.380       .  S
C1810      F1814   1.383       .  S
C1810      F1815   1.383       .  S
C1810      F1816   1.384       .  S
C1817      H1824   1.086       .  S
C1817      C1818   1.393       .  A
C1817      C1822   1.400       .  A
C1818      C1819   1.409       .  A
C1819      C1820   1.418   1_565  A
C1819      C1826   1.514       .  S
C1820      H1825   1.072       .  S
C1820      C1821   1.419       .  A
C1821      C1822   1.437   1_545  A
C1822      C1823   1.522   1_565  S
C1823      F1827   1.388       .  S
C1823      F1828   1.376       .  S
C1823      F1829   1.373       .  S
C1826      F1830   1.384       .  S
C1826      F1831   1.383   1_565  S
C1826      F1832   1.384   1_565  S
C1833      H1840   1.085       .  S
C1833      C1834   1.404       .  A
C1833      C1838   1.413       .  A
C1834      C1835   1.427       .  A
C1835      C1836   1.401       .  A
C1835      C1842   1.524       .  S
C1836      H1841   1.082       .  S
C1836      C1837   1.402       .  A
C1837      C1838   1.427       .  A
C1838      C1839   1.515       .  S
C1839      F1843   1.385       .  S
C1839      F1844   1.374       .  S
C1839      F1845   1.382       .  S
C1842      F1846   1.381       .  S
C1842      F1847   1.380       .  S
C1842      F1848   1.386       .  S
C1849      H1856   1.080       .  S
C1849      C1850   1.409       .  A
C1849      C1854   1.408       .  A
C1850      C1851   1.422       .  A
C1851      C1852   1.406       .  A
C1851      C1858   1.521       .  S
C1852      H1857   1.081       .  S
C1852      C1853   1.407       .  A
C1853      C1854   1.418       .  A
C1854      C1855   1.515       .  S
C1855      F1859   1.384       .  S
C1855      F1860   1.383       .  S
C1855      F1861   1.382       .  S
C1858      F1862   1.379       .  S
C1858      F1863   1.379       .  S
C1858      F1864   1.385       .  S
C1865      H1872   1.082       .  S
C1865      C1866   1.406   1_545  A
C1865      C1870   1.402       .  A
C1866      C1867   1.425       .  A
C1867      C1868   1.410       .  A
C1867      C1874   1.519       .  S
C1868      H1873   1.082       .  S
C1868      C1869   1.405       .  A
C1869      C1870   1.430   1_565  A
C1870      C1871   1.524       .  S
C1871      F1875   1.380       .  S
C1871      F1876   1.375       .  S
C1871      F1877   1.384       .  S
C1874      F1878   1.383       .  S
C1874      F1879   1.383       .  S
C1874      F1880   1.385       .  S
C1881      H1888   1.081       .  S
C1881      C1882   1.403   1_545  A
C1881      C1886   1.401       .  A
C1882      C1883   1.422       .  A
C1883      C1884   1.415       .  A
C1883      C1890   1.518       .  S
C1884      H1889   1.084       .  S
C1884      C1885   1.410       .  A
C1885      C1886   1.427   1_565  A
C1886      C1887   1.526       .  S
C1887      F1891   1.385       .  S
C1887      F1892   1.383       .  S
C1887      F1893   1.384       .  S
C1890      F1894   1.383       .  S
C1890      F1895   1.379       .  S
C1890      F1896   1.384       .  S
C1897      H1904   1.083       .  S
C1897      C1898   1.406   1_554  A
C1897      C1902   1.413       .  A
C1898      C1899   1.430       .  A
C1899      C1900   1.404       .  A
C1899      C1906   1.526       .  S
C1900      H1905   1.080       .  S
C1900      C1901   1.400   1_556  A
C1901      C1902   1.424       .  A
C1902      C1903   1.520       .  S
C1903      F1907   1.385       .  S
C1903      F1908   1.379       .  S
C1903      F1909   1.377       .  S
C1906      F1910   1.383       .  S
C1906      F1911   1.384       .  S
C1906      F1912   1.385       .  S
C1913      H1920   1.085       .  S
C1913      C1914   1.404   1_554  A
C1913      C1918   1.416       .  A
C1914      C1915   1.420       .  A
C1915      C1916   1.396       .  A
C1915      C1922   1.523       .  S
C1916      H1921   1.081       .  S
C1916      C1917   1.407   1_556  A
C1917      C1918   1.432       .  A
C1918      C1919   1.518       .  S
C1919      F1923   1.384       .  S
C1919      F1924   1.374       .  S
C1919      F1925   1.383       .  S
C1922      F1926   1.379       .  S
C1922      F1927   1.380       .  S
C1922      F1928   1.386       .  S
C1929      H1936   1.085       .  S
C1929      C1930   1.405       .  A
C1929      C1934   1.411       .  A
C1930      C1931   1.429       .  A
C1931      C1932   1.406       .  A
C1931      C1938   1.523       .  S
C1932      H1937   1.080       .  S
C1932      C1933   1.402       .  A
C1933      C1934   1.426       .  A
C1934      C1935   1.515       .  S
C1935      F1939   1.384       .  S
C1935      F1940   1.370       .  S
C1935      F1941   1.383       .  S
C1938      F1942   1.383       .  S
C1938      F1943   1.382       .  S
C1938      F1944   1.385       .  S
C1945      H1952   1.085       .  S
C1945      C1946   1.405       .  A
C1945      C1950   1.410       .  A
C1946      C1947   1.430       .  A
C1947      C1948   1.404       .  A
C1947      C1954   1.524       .  S
C1948      H1953   1.082       .  S
C1948      C1949   1.400       .  A
C1949      C1950   1.425       .  A
C1950      C1951   1.515       .  S
C1951      F1955   1.385       .  S
C1951      F1956   1.374       .  S
C1951      F1957   1.382       .  S
C1954      F1958   1.382       .  S
C1954      F1959   1.380       .  S
C1954      F1960   1.386       .  S
C1961      H1968   1.083       .  S
C1961      C1962   1.405       .  A
C1961      C1966   1.402       .  A
C1962      C1963   1.412   1_565  A
C1963      C1964   1.410       .  A
C1963      C1970   1.517       .  S
C1964      H1969   1.077       .  S
C1964      C1965   1.412   1_545  A
C1965      C1966   1.424       .  A
C1966      C1967   1.524       .  S
C1967      F1971   1.382       .  S
C1967      F1972   1.379       .  S
C1967      F1973   1.385       .  S
C1970      F1974   1.380       .  S
C1970      F1975   1.383       .  S
C1970      F1976   1.385       .  S
C1977      H1984   1.085       .  S
C1977      C1978   1.408   1_545  A
C1977      C1982   1.411       .  A
C1978      C1979   1.429       .  A
C1979      C1980   1.405       .  A
C1979      C1986   1.521       .  S
C1980      H1985   1.082       .  S
C1980      C1981   1.402   1_565  A
C1981      C1982   1.425       .  A
C1982      C1983   1.517       .  S
C1983      F1987   1.384       .  S
C1983      F1988   1.374       .  S
C1983      F1989   1.383       .  S
C1986      F1990   1.383       .  S
C1986      F1991   1.382       .  S
C1986      F1992   1.385       .  S
C1993      H2000   1.075       .  S
C1993      C1994   1.409       .  A
C1993      C1998   1.403       .  A
C1994      C1995   1.421       .  A
C1995      C1996   1.413       .  A
C1995      C2002   1.517       .  S
C1996      H2001   1.082       .  S
C1996      C1997   1.409       .  A
C1997      C1998   1.415       .  A
C1998      C1999   1.518       .  S
C1999      F2003   1.385       .  S
C1999      F2004   1.379       .  S
C1999      F2005   1.378       .  S
C2002      F2006   1.383       .  S
C2002      F2007   1.382       .  S
C2002      F2008   1.385       .  S
C2009      H2016   1.085       .  S
C2009      C2010   1.396       .  A
C2009      C2014   1.405       .  A
C2010      C2011   1.422       .  A
C2011      C2012   1.411       .  A
C2011      C2018   1.523       .  S
C2012      H2017   1.075       .  S
C2012      C2013   1.413       .  A
C2013      C2014   1.426       .  A
C2014      C2015   1.504       .  S
C2015      F2019   1.385       .  S
C2015      F2020   1.379       .  S
C2015      F2021   1.373       .  S
C2018      F2022   1.382       .  S
C2018      F2023   1.385       .  S
C2018      F2024   1.385       .  S
C2025      H2032   1.083       .  S
C2025      C2026   1.406       .  A
C2025      C2030   1.404       .  A
C2026      C2027   1.426   1_556  A
C2027      C2028   1.410       .  A
C2027      C2034   1.517       .  S
C2028      H2033   1.081       .  S
C2028      C2029   1.404   1_554  A
C2029      C2030   1.419       .  A
C2030      C2031   1.516       .  S
C2031      F2035   1.382       .  S
C2031      F2036   1.377       .  S
C2031      F2037   1.385       .  S
C2034      F2038   1.383       .  S
C2034      F2039   1.382       .  S
C2034      F2040   1.385       .  S
C2041      H2048   1.086       .  S
C2041      C2042   1.393   1_554  A
C2041      C2046   1.410       .  A
C2042      C2043   1.420       .  A
C2043      C2044   1.404       .  A
C2043      C2050   1.523       .  S
C2044      H2049   1.079       .  S
C2044      C2045   1.412   1_556  A
C2045      C2046   1.438       .  A
C2046      C2047   1.509       .  S
C2047      F2051   1.385       .  S
C2047      F2052   1.363       .  S
C2047      F2053   1.382       .  S
C2050      F2054   1.382       .  S
C2050      F2055   1.380       .  S
C2050      F2056   1.386       .  S
C2057      H2064   1.085       .  S
C2057      C2058   1.403       .  A
C2057      C2062   1.413       .  A
C2058      C2059   1.422       .  A
C2059      C2060   1.399       .  A
C2059      C2066   1.522       .  S
C2060      H2065   1.081       .  S
C2060      C2061   1.406       .  A
C2061      C2062   1.428       .  A
C2062      C2063   1.515       .  S
C2063      F2067   1.384       .  S
C2063      F2068   1.383       .  S
C2063      F2069   1.375       .  S
C2066      F2070   1.382       .  S
C2066      F2071   1.380       .  S
C2066      F2072   1.385       .  S
C2073      H2080   1.079       .  S
C2073      C2074   1.411       .  A
C2073      C2078   1.398       .  A
C2074      C2075   1.425       .  A
C2075      C2076   1.417       .  A
C2075      C2082   1.514       .  S
C2076      H2081   1.084       .  S
C2076      C2077   1.405       .  A
C2077      C2078   1.421       .  A
C2078      C2079   1.522       .  S
C2079      F2083   1.385       .  S
C2079      F2084   1.382       .  S
C2079      F2085   1.378       .  S
C2082      F2086   1.379       .  S
C2082      F2087   1.385       .  S
C2082      F2088   1.380       .  S
C2089      H2096   1.084       .  S
C2089      C2090   1.406       .  A
C2089      C2094   1.408       .  A
C2090      C2091   1.416   1_554  A
C2091      C2092   1.408       .  A
C2091      C2098   1.515       .  S
C2092      H2097   1.080       .  S
C2092      C2093   1.408   1_556  A
C2093      C2094   1.425       .  A
C2094      C2095   1.514       .  S
C2095      F2099   1.383       .  S
C2095      F2100   1.384       .  S
C2095      F2101   1.374       .  S
C2098      F2102   1.382       .  S
C2098      F2103   1.383       .  S
C2098      F2104   1.382       .  S
C2105      H2112   1.079       .  S
C2105      C2106   1.415   1_554  A
C2105      C2110   1.412       .  A
C2106      C2107   1.426       .  A
C2107      C2108   1.401       .  A
C2107      C2114   1.520       .  S
C2108      H2113   1.083       .  S
C2108      C2109   1.401       .  A
C2109      C2110   1.411   1_556  A
C2110      C2111   1.516       .  S
C2111      F2115   1.385       .  S
C2111      F2116   1.380       .  S
C2111      F2117   1.384       .  S
C2114      F2118   1.381       .  S
C2114      F2119   1.379       .  S
C2114      F2120   1.385       .  S
C2121      H2128   1.081       .  S
C2121      C2122   1.404       .  A
C2121      C2126   1.397       .  A
C2122      C2123   1.428   1_455  A
C2123      C2124   1.411       .  A
C2123      C2130   1.516       .  S
C2124      H2129   1.085       .  S
C2124      C2125   1.403   1_655  A
C2125      C2126   1.425       .  A
C2126      C2127   1.524       .  S
C2127      F2131   1.386       .  S
C2127      F2132   1.380       .  S
C2127      F2133   1.380       .  S
C2130      F2134   1.373       .  S
C2130      F2135   1.382       .  S
C2130      F2136   1.385       .  S
C2137      H2144   1.078       .  S
C2137      C2138   1.404   1_655  A
C2137      C2142   1.407       .  A
C2138      C2139   1.415       .  A
C2139      C2140   1.408       .  A
C2139      C2146   1.520       .  S
C2140      H2145   1.073       .  S
C2140      C2141   1.409       .  A
C2141      C2142   1.427   1_455  A
C2142      C2143   1.515       .  S
C2143      F2147   1.385       .  S
C2143      F2148   1.372       .  S
C2143      F2149   1.382       .  S
C2146      F2150   1.384       .  S
C2146      F2151   1.382       .  S
C2146      F2152   1.384       .  S
C2153      H2160   1.084       .  S
C2153      C2154   1.401       .  A
C2153      C2158   1.399       .  A
C2154      C2155   1.417   1_556  A
C2155      C2156   1.413       .  A
C2155      C2162   1.516       .  S
C2156      H2161   1.082       .  S
C2156      C2157   1.412   1_554  A
C2157      C2158   1.427       .  A
C2158      C2159   1.522       .  S
C2159      F2163   1.385       .  S
C2159      F2164   1.383       .  S
C2159      F2165   1.374       .  S
C2162      F2166   1.382       .  S
C2162      F2167   1.383       .  S
C2162      F2168   1.385       .  S
C2169      H2176   1.076       .  S
C2169      C2170   1.408       .  A
C2169      C2174   1.403       .  A
C2170      C2171   1.422   1_655  A
C2171      C2172   1.412       .  A
C2171      C2178   1.518       .  S
C2172      H2177   1.082       .  S
C2172      C2173   1.408   1_455  A
C2173      C2174   1.415       .  A
C2174      C2175   1.518       .  S
C2175      F2179   1.385       .  S
C2175      F2180   1.379       .  S
C2175      F2181   1.379       .  S
C2178      F2182   1.383       .  S
C2178      F2183   1.383       .  S
C2178      F2184   1.385       .  S
C2185      H2192   1.081       .  S
C2185      C2186   1.399       .  A
C2185      C2190   1.406       .  A
C2186      C2187   1.421   1_556  A
C2187      C2188   1.410       .  A
C2187      C2194   1.518       .  S
C2188      H2193   1.084       .  S
C2188      C2189   1.407   1_554  A
C2189      C2190   1.433       .  A
C2190      C2191   1.522       .  S
C2191      F2195   1.385       .  S
C2191      F2196   1.383       .  S
C2191      F2197   1.382       .  S
C2194      F2198   1.377       .  S
C2194      F2199   1.381       .  S
C2194      F2200   1.385       .  S
C2201      H2208   1.084       .  S
C2201      C2202   1.410   1_455  A
C2201      C2206   1.412       .  A
C2202      C2203   1.429       .  A
C2203      C2204   1.405       .  A
C2203      C2210   1.524       .  S
C2204      H2209   1.083       .  S
C2204      C2205   1.406   1_655  A
C2205      C2206   1.417       .  A
C2206      C2207   1.515       .  S
C2207      F2211   1.383       .  S
C2207      F2212   1.380       .  S
C2207      F2213   1.383       .  S
C2210      F2214   1.383       .  S
C2210      F2215   1.384       .  S
C2210      F2216   1.385       .  S
C2217      H2224   1.085       .  S
C2217      C2218   1.404       .  A
C2217      C2222   1.412       .  A
C2218      C2219   1.426       .  A
C2219      C2220   1.402       .  A
C2219      C2226   1.524       .  S
C2220      H2225   1.079       .  S
C2220      C2221   1.404       .  A
C2221      C2222   1.428       .  A
C2222      C2223   1.515       .  S
C2223      F2227   1.384       .  S
C2223      F2228   1.371       .  S
C2223      F2229   1.383       .  S
C2226      F2230   1.382       .  S
C2226      F2231   1.380       .  S
C2226      F2232   1.386       .  S
C2233      H2240   1.082       .  S
C2233      C2234   1.401       .  A
C2233      C2238   1.406       .  A
C2234      C2235   1.412       .  A
C2235      C2236   1.412       .  A
C2235      C2242   1.518       .  S
C2236      H2241   1.064       .  S
C2236      C2237   1.412       .  A
C2237      C2238   1.432       .  A
C2238      C2239   1.517       .  S
C2239      F2243   1.386       .  S
C2239      F2244   1.380       .  S
C2239      F2245   1.370       .  S
C2242      F2246   1.383       .  S
C2242      F2247   1.383       .  S
C2242      F2248   1.383       .  S
C2249      H2256   1.079       .  S
C2249      C2250   1.405       .  A
C2249      C2254   1.405       .  A
C2250      C2251   1.416   1_455  A
C2251      C2252   1.408       .  A
C2251      C2258   1.520       .  S
C2252      H2257   1.075       .  S
C2252      C2253   1.409   1_655  A
C2253      C2254   1.422       .  A
C2254      C2255   1.512       .  S
C2255      F2259   1.385       .  S
C2255      F2260   1.372       .  S
C2255      F2261   1.383       .  S
C2258      F2262   1.384       .  S
C2258      F2263   1.382       .  S
C2258      F2264   1.384       .  S
C2265      H2272   1.085       .  S
C2265      C2266   1.399       .  A
C2265      C2270   1.412       .  A
C2266      C2267   1.420       .  A
C2267      C2268   1.399       .  A
C2267      C2274   1.518       .  S
C2268      H2273   1.073       .  S
C2268      C2269   1.414       .  A
C2269      C2270   1.428       .  A
C2270      C2271   1.515       .  S
C2271      F2275   1.386       .  S
C2271      F2276   1.381       .  S
C2271      F2277   1.381       .  S
C2274      F2278   1.378       .  S
C2274      F2279   1.379   1_455  S
C2274      F2280   1.385       .  S
C2281      H2288   1.083       .  S
C2281      C2282   1.403       .  A
C2281      C2286   1.399       .  A
C2282      C2283   1.415       .  A
C2283      C2284   1.413       .  A
C2283      C2290   1.516       .  S
C2284      H2289   1.081       .  S
C2284      C2285   1.412       .  A
C2285      C2286   1.425       .  A
C2286      C2287   1.524       .  S
C2287      F2291   1.385       .  S
C2287      F2292   1.382       .  S
C2287      F2293   1.378       .  S
C2290      F2294   1.381       .  S
C2290      F2295   1.383       .  S
C2290      F2296   1.385       .  S
C2297      H2304   1.081       .  S
C2297      C2298   1.404       .  A
C2297      C2302   1.409       .  A
C2298      C2299   1.414       .  A
C2299      C2300   1.406       .  A
C2299      C2306   1.517       .  S
C2300      H2305   1.068       .  S
C2300      C2301   1.409       .  A
C2301      C2302   1.427       .  A
C2302      C2303   1.519       .  S
C2303      F2307   1.385       .  S
C2303      F2308   1.374       .  S
C2303      F2309   1.377       .  S
C2306      F2310   1.383       .  S
C2306      F2311   1.382       .  S
C2306      F2312   1.383       .  S
C2313      H2320   1.084       .  S
C2313      C2314   1.404       .  A
C2313      C2318   1.401       .  A
C2314      C2315   1.417   1_554  A
C2315      C2316   1.409       .  A
C2315      C2322   1.515       .  S
C2316      H2321   1.082       .  S
C2316      C2317   1.411   1_556  A
C2317      C2318   1.423       .  A
C2318      C2319   1.518       .  S
C2319      F2323   1.383       .  S
C2319      F2324   1.372       .  S
C2319      F2325   1.384       .  S
C2322      F2326   1.383       .  S
C2322      F2327   1.382       .  S
C2322      F2328   1.384       .  S
C2329      H2336   1.082       .  S
C2329      C2330   1.401       .  A
C2329      C2334   1.397       .  A
C2330      C2331   1.423   1_554  A
C2331      C2332   1.416       .  A
C2331      C2338   1.516       .  S
C2332      H2337   1.084       .  S
C2332      C2333   1.408   1_556  A
C2333      C2334   1.427       .  A
C2334      C2335   1.523       .  S
C2335      F2339   1.386       .  S
C2335      F2340   1.378       .  S
C2335      F2341   1.381       .  S
C2338      F2342   1.384       .  S
C2338      F2343   1.380       .  S
C2338      F2344   1.383       .  S
C2345      H2352   1.083       .  S
C2345      C2346   1.407       .  A
C2345      C2350   1.404       .  A
C2346      C2347   1.416       .  A
C2347      C2348   1.407       .  A
C2347      C2354   1.515       .  S
C2348      H2353   1.080       .  S
C2348      C2349   1.409       .  A
C2349      C2350   1.419       .  A
C2350      C2351   1.518       .  S
C2351      F2355   1.382       .  S
C2351      F2356   1.383       .  S
C2351      F2357   1.385       .  S
C2354      F2358   1.383       .  S
C2354      F2359   1.383       .  S
C2354      F2360   1.384       .  S
C2361      H2368   1.085       .  S
C2361      C2362   1.406   1_655  A
C2361      C2366   1.415       .  A
C2362      C2363   1.426       .  A
C2363      C2364   1.403       .  A
C2363      C2370   1.524       .  S
C2364      H2369   1.080       .  S
C2364      C2365   1.405   1_455  A
C2365      C2366   1.428       .  A
C2366      C2367   1.515       .  S
C2367      F2371   1.384       .  S
C2367      F2372   1.372       .  S
C2367      F2373   1.383       .  S
C2370      F2374   1.382       .  S
C2370      F2375   1.380       .  S
C2370      F2376   1.386       .  S
C2377      H2384   1.076       .  S
C2377      C2378   1.406   1_655  A
C2377      C2382   1.403       .  A
C2378      C2379   1.421       .  A
C2379      C2380   1.417       .  A
C2379      C2386   1.516       .  S
C2380      H2385   1.083       .  S
C2380      C2381   1.410       .  A
C2381      C2382   1.420   1_455  A
C2382      C2383   1.520       .  S
C2383      F2387   1.385       .  S
C2383      F2388   1.380       .  S
C2383      F2389   1.378       .  S
C2386      F2390   1.384       .  S
C2386      F2391   1.382       .  S
C2386      F2392   1.385       .  S
C2393      H2400   1.084       .  S
C2393      C2394   1.400       .  A
C2393      C2398   1.405       .  A
C2394      C2395   1.408       .  A
C2395      C2396   1.413       .  A
C2395      C2402   1.517       .  S
C2396      H2401   1.063       .  S
C2396      C2397   1.416       .  A
C2397      C2398   1.431       .  A
C2398      C2399   1.517       .  S
C2399      F2403   1.386       .  S
C2399      F2404   1.381       .  S
C2399      F2405   1.376       .  S
C2402      F2406   1.381       .  S
C2402      F2407   1.384       .  S
C2402      F2408   1.384       .  S
C2409      H2416   1.084       .  S
C2409      C2410   1.403   1_554  A
C2409      C2414   1.397       .  A
C2410      C2411   1.416       .  A
C2411      C2412   1.412       .  A
C2411      C2418   1.516       .  S
C2412      H2417   1.081       .  S
C2412      C2413   1.412   1_556  A
C2413      C2414   1.421       .  A
C2414      C2415   1.519       .  S
C2415      F2419   1.383       .  S
C2415      F2420   1.376       .  S
C2415      F2421   1.385       .  S
C2418      F2422   1.381       .  S
C2418      F2423   1.383       .  S
C2418      F2424   1.385       .  S
C2425      H2432   1.083       .  S
C2425      C2426   1.413   1_556  A
C2425      C2430   1.419       .  A
C2426      C2427   1.422       .  A
C2427      C2428   1.398       .  A
C2427      C2434   1.522       .  S
C2428      H2433   1.074       .  S
C2428      C2429   1.400       .  A
C2429      C2430   1.421   1_554  A
C2430      C2431   1.516       .  S
C2431      F2435   1.384       .  S
C2431      F2436   1.382       .  S
C2431      F2437   1.379       .  S
C2434      F2438   1.383       .  S
C2434      F2439   1.384       .  S
C2434      F2440   1.384       .  S
C2441      H2448   1.075       .  S
C2441      C2442   1.409       .  A
C2441      C2446   1.401       .  A
C2442      C2443   1.421       .  A
C2443      C2444   1.412       .  A
C2443      C2450   1.518       .  S
C2444      H2449   1.082       .  S
C2444      C2445   1.408       .  A
C2445      C2446   1.413       .  A
C2446      C2447   1.519       .  S
C2447      F2451   1.385       .  S
C2447      F2452   1.380       .  S
C2447      F2453   1.379       .  S
C2450      F2454   1.383       .  S
C2450      F2455   1.383       .  S
C2450      F2456   1.385       .  S
C2457      H2464   1.081       .  S
C2457      C2458   1.404       .  A
C2457      C2462   1.406       .  A
C2458      C2459   1.413       .  A
C2459      C2460   1.407       .  A
C2459      C2466   1.517       .  S
C2460      H2465   1.071       .  S
C2460      C2461   1.411       .  A
C2461      C2462   1.427       .  A
C2462      C2463   1.521       .  S
C2463      F2467   1.385       .  S
C2463      F2468   1.375       .  S
C2463      F2469   1.380       .  S
C2466      F2470   1.383       .  S
C2466      F2471   1.382       .  S
C2466      F2472   1.384       .  S
C2473      H2480   1.081       .  S
C2473      C2474   1.409       .  A
C2473      C2478   1.404       .  A
C2474      C2475   1.419       .  A
C2475      C2476   1.408       .  A
C2475      C2482   1.515       .  S
C2476      H2481   1.083       .  S
C2476      C2477   1.408       .  A
C2477      C2478   1.417       .  A
C2478      C2479   1.518       .  S
C2479      F2483   1.385       .  S
C2479      F2484   1.379       .  S
C2479      F2485   1.380       .  S
C2482      F2486   1.383       .  S
C2482      F2487   1.383       .  S
C2482      F2488   1.385       .  S
C2489      H2496   1.085       .  S
C2489      C2490   1.402       .  A
C2489      C2494   1.412       .  A
C2490      C2491   1.422       .  A
C2491      C2492   1.406       .  A
C2491      C2498   1.525       .  S
C2492      H2497   1.066       .  S
C2492      C2493   1.406       .  A
C2493      C2494   1.435       .  A
C2494      C2495   1.516       .  S
C2495      F2499   1.383       .  S
C2495      F2500   1.367       .  S
C2495      F2501   1.384       .  S
C2498      F2502   1.384       .  S
C2498      F2503   1.381       .  S
C2498      F2504   1.381       .  S
C2505      H2512   1.082       .  S
C2505      C2506   1.406       .  A
C2505      C2510   1.405       .  A
C2506      C2507   1.417       .  A
C2507      C2508   1.411       .  A
C2507      C2514   1.518       .  S
C2508      H2513   1.074       .  S
C2508      C2509   1.408       .  A
C2509      C2510   1.419       .  A
C2510      C2511   1.516       .  S
C2511      F2515   1.385       .  S
C2511      F2516   1.380       .  S
C2511      F2517   1.382       .  S
C2514      F2518   1.383       .  S
C2514      F2519   1.382       .  S
C2514      F2520   1.384       .  S
C2521      H2528   1.081       .  S
C2521      C2522   1.409       .  A
C2521      C2526   1.400       .  A
C2522      C2523   1.437       .  A
C2523      C2524   1.414       .  A
C2523      C2530   1.513       .  S
C2524      H2529   1.085       .  S
C2524      C2525   1.398       .  A
C2525      C2526   1.420       .  A
C2526      C2527   1.523       .  S
C2527      F2531   1.386       .  S
C2527      F2532   1.380       .  S
C2527      F2533   1.380       .  S
C2530      F2534   1.366       .  S
C2530      F2535   1.383       .  S
C2530      F2536   1.385       .  S
C2537      H2544   1.085       .  S
C2537      C2538   1.407       .  A
C2537      C2542   1.424       .  A
C2538      C2539   1.416       .  A
C2539      C2540   1.387       .  A
C2539      C2546   1.521       .  S
C2540      H2545   1.065       .  S
C2540      C2541   1.398       .  A
C2541      C2542   1.435       .  A
C2542      C2543   1.511       .  S
C2543      F2547   1.382       .  S
C2543      F2548   1.384       .  S
C2543      F2549   1.370       .  S
C2546      F2550   1.373       .  S
C2546      F2551   1.381       .  S
C2546      F2552   1.386       .  S
C2553      H2560   1.084       .  S
C2553      C2554   1.405       .  A
C2553      C2558   1.405       .  A
C2554      C2555   1.428       .  A
C2555      C2556   1.412       .  A
C2555      C2562   1.516       .  S
C2556      H2561   1.078       .  S
C2556      C2557   1.402       .  A
C2557      C2558   1.426       .  A
C2558      C2559   1.519       .  S
C2559      F2563   1.381       .  S
C2559      F2564   1.375       .  S
C2559      F2565   1.384       .  S
C2562      F2566   1.383       .  S
C2562      F2567   1.383       .  S
C2562      F2568   1.385       .  S
C2569      H2576   1.085       .  S
C2569      C2570   1.402       .  A
C2569      C2574   1.410       .  A
C2570      C2571   1.425       .  A
C2571      C2572   1.404       .  A
C2571      C2578   1.524       .  S
C2572      H2577   1.081       .  S
C2572      C2573   1.405       .  A
C2573      C2574   1.428       .  A
C2574      C2575   1.514       .  S
C2575      F2579   1.384       .  S
C2575      F2580   1.383       .  S
C2575      F2581   1.370       .  S
C2578      F2582   1.383       .  S
C2578      F2583   1.383       .  S
C2578      F2584   1.385       .  S
C2585      H2592   1.083       .  S
C2585      C2586   1.402       .  A
C2585      C2590   1.399       .  A
C2586      C2587   1.415       .  A
C2587      C2588   1.415       .  A
C2587      C2594   1.516       .  S
C2588      H2593   1.080       .  S
C2588      C2589   1.412       .  A
C2589      C2590   1.424       .  A
C2590      C2591   1.522       .  S
C2591      F2595   1.385       .  S
C2591      F2596   1.377       .  S
C2591      F2597   1.382       .  S
C2594      F2598   1.383       .  S
C2594      F2599   1.382       .  S
C2594      F2600   1.385       .  S
C2601      H2608   1.084       .  S
C2601      C2602   1.402       .  A
C2601      C2606   1.396       .  A
C2602      C2603   1.419       .  A
C2603      C2604   1.416       .  A
C2603      C2610   1.516       .  S
C2604      H2609   1.082       .  S
C2604      C2605   1.410       .  A
C2605      C2606   1.423       .  A
C2606      C2607   1.523       .  S
C2607      F2611   1.382       .  S
C2607      F2612   1.375       .  S
C2607      F2613   1.385       .  S
C2610      F2614   1.381       .  S
C2610      F2615   1.383       .  S
C2610      F2616   1.384       .  S
C2617      H2624   1.085       .  S
C2617      C2618   1.402       .  A
C2617      C2622   1.407       .  A
C2618      C2619   1.431       .  A
C2619      C2620   1.409       .  A
C2619      C2626   1.523       .  S
C2620      H2625   1.070       .  S
C2620      C2621   1.401       .  A
C2621      C2622   1.430       .  A
C2622      C2623   1.514       .  S
C2623      F2627   1.383       .  S
C2623      F2628   1.367       .  S
C2623      F2629   1.385       .  S
C2626      F2630   1.384       .  S
C2626      F2631   1.381       .  S
C2626      F2632   1.383       .  S
C2633      H2640   1.071       .  S
C2633      C2634   1.417       .  A
C2633      C2638   1.400       .  A
C2634      C2635   1.442       .  A
C2635      C2636   1.415       .  A
C2635      C2642   1.511       .  S
C2636      H2641   1.085       .  S
C2636      C2637   1.394       .  A
C2637      C2638   1.414       .  A
C2638      C2639   1.522       .  S
C2639      F2643   1.386       .  S
C2639      F2644   1.381       .  S
C2639      F2645   1.379       .  S
C2642      F2646   1.381       .  S
C2642      F2647   1.366       .  S
C2642      F2648   1.386       .  S
C2649      H2656   1.081       .  S
C2649      C2650   1.412       .  A
C2649      C2654   1.412       .  A
C2650      C2651   1.424       .  A
C2651      C2652   1.398       .  A
C2651      C2658   1.523       .  S
C2652      H2657   1.082       .  S
C2652      C2653   1.402       .  A
C2653      C2654   1.413       .  A
C2654      C2655   1.516       .  S
C2655      F2659   1.384       .  S
C2655      F2660   1.383       .  S
C2655      F2661   1.382       .  S
C2658      F2662   1.385       .  S
C2658      F2663   1.378       .  S
C2658      F2664   1.382       .  S
C2665      H2672   1.084       .  S
C2665      C2666   1.403       .  A
C2665      C2670   1.405       .  A
C2666      C2667   1.416       .  A
C2667      C2668   1.406       .  A
C2667      C2674   1.517       .  S
C2668      H2673   1.078       .  S
C2668      C2669   1.411       .  A
C2669      C2670   1.426       .  A
C2670      C2671   1.516       .  S
C2671      F2675   1.385       .  S
C2671      F2676   1.382       .  S
C2671      F2677   1.371       .  S
C2674      F2678   1.383       .  S
C2674      F2679   1.382       .  S
C2674      F2680   1.384       .  S
C2681      H2688   1.084       .  S
C2681      C2682   1.407       .  A
C2681      C2686   1.402       .  A
C2682      C2683   1.424       .  A
C2683      C2684   1.412       .  A
C2683      C2690   1.514       .  S
C2684      H2689   1.083       .  S
C2684      C2685   1.405       .  A
C2685      C2686   1.434       .  A
C2686      C2687   1.530       .  S
C2687      F2691   1.385       .  S
C2687      F2692   1.377       .  S
C2687      F2693   1.381       .  S
C2690      F2694   1.383       .  S
C2690      F2695   1.383       .  S
C2690      F2696   1.385       .  S
C2697      H2704   1.073       .  S
C2697      C2698   1.414       .  A
C2697      C2702   1.412       .  A
C2698      C2699   1.425       .  A
C2699      C2700   1.401       .  A
C2699      C2706   1.519       .  S
C2700      H2705   1.083       .  S
C2700      C2701   1.403       .  A
C2701      C2702   1.410       .  A
C2702      C2703   1.516       .  S
C2703      F2707   1.384       .  S
C2703      F2708   1.383       .  S
C2703      F2709   1.382       .  S
C2706      F2710   1.375       .  S
C2706      F2711   1.382       .  S
C2706      F2712   1.385       .  S
C2713      H2720   1.081       .  S
C2713      C2714   1.407       .  A
C2713      C2718   1.407       .  A
C2714      C2715   1.417       .  A
C2715      C2716   1.407       .  A
C2715      C2722   1.515       .  S
C2716      H2721   1.079       .  S
C2716      C2717   1.408       .  A
C2717      C2718   1.422       .  A
C2718      C2719   1.519       .  S
C2719      F2723   1.385       .  S
C2719      F2724   1.379       .  S
C2719      F2725   1.378       .  S
C2722      F2726   1.383       .  S
C2722      F2727   1.382       .  S
C2722      F2728   1.385       .  S
C2729      H2736   1.082       .  S
C2729      C2730   1.406       .  A
C2729      C2734   1.402       .  A
C2730      C2731   1.416       .  A
C2731      C2732   1.411       .  A
C2731      C2738   1.516       .  S
C2732      H2737   1.078       .  S
C2732      C2733   1.409       .  A
C2733      C2734   1.418       .  A
C2734      C2735   1.517       .  S
C2735      F2739   1.382       .  S
C2735      F2740   1.382       .  S
C2735      F2741   1.385       .  S
C2738      F2742   1.383       .  S
C2738      F2743   1.382       .  S
C2738      F2744   1.385       .  S
C2745      H2752   1.073       .  S
C2745      C2746   1.403       .  A
C2745      C2750   1.409       .  A
C2746      C2747   1.431       .  A
C2747      C2748   1.405       .  A
C2747      C2754   1.519       .  S
C2748      H2753   1.084       .  S
C2748      C2749   1.403       .  A
C2749      C2750   1.425       .  A
C2750      C2751   1.517       .  S
C2751      F2755   1.385       .  S
C2751      F2756   1.383       .  S
C2751      F2757   1.383       .  S
C2754      F2758   1.381       .  S
C2754      F2759   1.369       .  S
C2754      F2760   1.383       .  S
C2761      H2768   1.083       .  S
C2761      C2762   1.401       .  A
C2761      C2766   1.399       .  A
C2762      C2763   1.414       .  A
C2763      C2764   1.412       .  A
C2763      C2770   1.517       .  S
C2764      H2769   1.081       .  S
C2764      C2765   1.413       .  A
C2765      C2766   1.425       .  A
C2766      C2767   1.522       .  S
C2767      F2771   1.385       .  S
C2767      F2772   1.375       .  S
C2767      F2773   1.383       .  S
C2770      F2774   1.383       .  S
C2770      F2775   1.383       .  S
C2770      F2776   1.384       .  S
C2777      H2784   1.085       .  S
C2777      C2778   1.406       .  A
C2777      C2782   1.414       .  A
C2778      C2779   1.426       .  A
C2779      C2780   1.401       .  A
C2779      C2786   1.525       .  S
C2780      H2785   1.082       .  S
C2780      C2781   1.404       .  A
C2781      C2782   1.426       .  A
C2782      C2783   1.517       .  S
C2783      F2787   1.383       .  S
C2783      F2788   1.375       .  S
C2783      F2789   1.384       .  S
C2786      F2790   1.384       .  S
C2786      F2791   1.383       .  S
C2786      F2792   1.385       .  S
C2793      H2800   1.082       .  S
C2793      C2794   1.405       .  A
C2793      C2798   1.401       .  A
C2794      C2795   1.418       .  A
C2795      C2796   1.411       .  A
C2795      C2802   1.517       .  S
C2796      H2801   1.080       .  S
C2796      C2797   1.408       .  A
C2797      C2798   1.417       .  A
C2798      C2799   1.517       .  S
C2799      F2803   1.385       .  S
C2799      F2804   1.382       .  S
C2799      F2805   1.382       .  S
C2802      F2806   1.383       .  S
C2802      F2807   1.382       .  S
C2802      F2808   1.385       .  S
C2809      H2816   1.081       .  S
C2809      C2810   1.413       .  A
C2809      C2814   1.414       .  A
C2810      C2811   1.425       .  A
C2811      C2812   1.398       .  A
C2811      C2818   1.521       .  S
C2812      H2817   1.083       .  S
C2812      C2813   1.402       .  A
C2813      C2814   1.414       .  A
C2814      C2815   1.515       .  S
C2815      F2819   1.384       .  S
C2815      F2820   1.383       .  S
C2815      F2821   1.382       .  S
C2818      F2822   1.376       .  S
C2818      F2823   1.383       .  S
C2818      F2824   1.385       .  S
C2825      H2832   1.080       .  S
C2825      C2826   1.410       .  A
C2825      C2830   1.408       .  A
C2826      C2827   1.418       .  A
C2827      C2828   1.404       .  A
C2827      C2834   1.518       .  S
C2828      H2833   1.079       .  S
C2828      C2829   1.407       .  A
C2829      C2830   1.417       .  A
C2830      C2831   1.518       .  S
C2831      F2835   1.385       .  S
C2831      F2836   1.384       .  S
C2831      F2837   1.382       .  S
C2834      F2838   1.385       .  S
C2834      F2839   1.378       .  S
C2834      F2840   1.382       .  S
C2841      H2848   1.079       .  S
C2841      C2842   1.401       .  A
C2841      C2846   1.410       .  A
C2842      C2843   1.422       .  A
C2843      C2844   1.407       .  A
C2843      C2850   1.519       .  S
C2844      H2849   1.079       .  S
C2844      C2845   1.405       .  A
C2845      C2846   1.436       .  A
C2846      C2847   1.525       .  S
C2847      F2851   1.385       .  S
C2847      F2852   1.369       .  S
C2847      F2853   1.379       .  S
C2850      F2854   1.384       .  S
C2850      F2855   1.383       .  S
C2850      F2856   1.385       .  S
