geometry optimzed in LAMMPS
_audit_creation_date              2020-11-30 
_audit_creation_method            'lammps2cif' 
_symmetry_space_group_name_H-M    'P1' 
_symmetry_Int_Tables_number       1 
_symmetry_cell_setting            triclinic 
loop_ 
_symmetry_equiv_pos_as_xyz 
  x,y,z 
_cell_length_a                    38.94899192941157 
_cell_length_b                    39.04423380975735 
_cell_length_c                    39.01305381817692 
_cell_angle_alpha                 89.96756304220199 
_cell_angle_beta                  90.16082911560818 
_cell_angle_gamma                 90.08148398072251 
loop_ 
_atom_site_label 
_atom_site_type_symbol 
_atom_site_fract_x 
_atom_site_fract_y 
_atom_site_fract_z 
_atom_site_charge 
C1          C  0.00176010  0.25926042  0.73509976     0.00080
C2          C  0.00189451  0.23447812  0.75936307     0.00080
C3          C  0.26710315  0.99944320  0.74353201     0.00080
C4          C  0.24228337  0.00002316  0.76756284     0.00080
C5          C  0.99838336  0.73743777  0.26419179     0.00080
C6          C  0.00052823  0.76329871  0.24106128     0.00080
C7          C  0.74233000  0.99761997  0.27019834     0.00080
C8          C  0.76626073  0.99912674  0.24516255     0.00080
C9          C  0.73238058  0.25850982  0.99860766     0.00080
C10         C  0.75945577  0.23680056  0.00015695     0.00080
C11         C  0.25244887  0.72813801  0.99889631     0.00080
C12         C  0.22714663  0.75200174  0.99875287     0.00080
C13         C  0.76075300  0.76528910  0.00383020     0.00080
C14         C  0.73357362  0.74371218  0.00321739     0.00080
C15         C  0.76097419  0.00090824  0.76583434     0.00080
C16         C  0.73651799  0.00058067  0.74129520     0.00080
C17         C  0.99649299  0.73179006  0.74598823     0.00080
C18         C  0.99618795  0.75430041  0.77248781     0.00080
O19         O  0.12236715  0.84491508  0.93583587    -0.82280
C20         C  0.09960908  0.98082189  0.90115847     0.97070
O21         O  0.11478562  0.96450746  0.92459285    -0.71400
O22         O  0.12498459  0.91323715  0.96689968    -0.74990
Al23       Al  0.13574241  0.92107141  0.92002136     1.48980
C24         C  0.09910222  0.90160021  0.98224615     0.92330
O25         O  0.03300818  0.87647186  0.91498073    -0.81210
O26         O  0.06629132  0.87496032  0.84543892    -0.74770
Al27       Al  0.07974686  0.86474307  0.92327429     1.90120
O28         O  0.03452087  0.92371062  0.88464318    -0.73840
O29         O  0.11973405  0.91518954  0.83816273    -0.73690
O30         O  0.08691623  0.96551570  0.87553616    -0.79350
O31         O  0.15520934  0.93335814  0.87757138    -0.77550
O32         O  0.09785807  0.90148054  0.90260273    -1.13690
O33         O  0.16200708  0.88003444  0.91721849    -0.72880
C34         C  0.15331025  0.85111769  0.92864424     0.97840
C35         C  0.01795758  0.90156529  0.90132914     0.94230
Al36       Al  0.07853905  0.91836296  0.86442192     1.55560
O37         O  0.07527240  0.88694532  0.96607460    -0.77500
C38         C  0.14871872  0.92678628  0.84665567     0.98400
C39         C  0.07178072  0.84419038  0.85373716     0.93280
O40         O  0.08199992  0.83697013  0.88349013    -0.82820
O41         O  0.87431621  0.93470773  0.84583045    -0.82280
C42         C  0.90006961  0.90253834  0.98298642     0.97070
O43         O  0.88592987  0.92660517  0.96672737    -0.71400
O44         O  0.87455490  0.96840305  0.91494119    -0.74990
Al45       Al  0.86357940  0.92142772  0.92363351     1.48980
C46         C  0.89965934  0.98375385  0.90155038     0.92330
O47         O  0.96476551  0.91554379  0.87643621    -0.81210
O48         O  0.93256801  0.84660508  0.87776609    -0.74770
Al49       Al  0.91766505  0.92336547  0.86512254     1.90120
O50         O  0.96407817  0.88707081  0.92505681    -0.73840
O51         O  0.87924927  0.83968927  0.91729592    -0.73690
O52         O  0.91185373  0.87683160  0.96738988    -0.79350
O53         O  0.84385651  0.87853584  0.93663926    -0.77550
O54         O  0.90065473  0.90377451  0.90309096    -1.13690
O55         O  0.83625404  0.91815199  0.88361397    -0.72880
C56         C  0.84369418  0.92796733  0.85381425     0.97840
C57         C  0.98030150  0.90245684  0.90166683     0.94230
Al58       Al  0.92026779  0.86607548  0.92037635     1.55560
O59         O  0.92241037  0.96733252  0.88560549    -0.77500
C60         C  0.85034162  0.84777115  0.92920600     0.98400
C61         C  0.92615961  0.85337989  0.84684877     0.93280
O62         O  0.91512376  0.88248527  0.83848685    -0.82820
O63         O  0.15536672  0.87501217  0.06641608    -0.82280
C64         C  0.01870762  0.89967151  0.10027392     0.97070
O65         O  0.03478020  0.88609347  0.07582688    -0.71400
O66         O  0.08651976  0.87538106  0.03445729    -0.74990
Al67       Al  0.07784414  0.86367383  0.08076751     1.48980
C68         C  0.09914665  0.90104556  0.01961862     0.92330
O69         O  0.12452436  0.96469839  0.08906607    -0.81210
O70         O  0.12493101  0.93141740  0.15706408    -0.74770
Al71       Al  0.13596338  0.91797557  0.07960697     1.90120
O72         O  0.07583465  0.96288232  0.11730032    -0.73840
O73         O  0.08557823  0.87652375  0.16264822    -0.73690
O74         O  0.03445153  0.90997936  0.12669975    -0.79350
O75         O  0.06452575  0.84318356  0.12286804    -0.77550
O76         O  0.09843186  0.90026871  0.09918346    -1.13690
O77         O  0.11816796  0.83670367  0.08372753    -0.72880
C78         C  0.14769312  0.84425276  0.07286665     0.97840
C79         C  0.09877747  0.97967061  0.10176439     0.94230
Al80       Al  0.08162217  0.91860680  0.13756040     1.55560
O81         O  0.11470607  0.92393258  0.03624817    -0.77500
C82         C  0.07301228  0.84803041  0.15365298     0.98400
C83         C  0.15577141  0.92593837  0.14893100     0.93280
O84         O  0.16296966  0.91430234  0.11980053    -0.82820
O85         O  0.83767473  0.91854382  0.12127588    -0.82280
C86         C  0.98102563  0.90051041  0.10025143     0.97070
O87         O  0.96615239  0.91348573  0.12581234    -0.71400
O88         O  0.92537296  0.96649805  0.11551469    -0.74990
Al89       Al  0.91971620  0.92330858  0.13721368     1.48980
C90         C  0.90173976  0.98282926  0.10065339     0.92330
O91         O  0.88588237  0.92637399  0.03694850    -0.81210
O92         O  0.87819332  0.83991051  0.08779190    -0.74770
Al93       Al  0.86417642  0.92151378  0.08034358     1.90120
O94         O  0.91054006  0.87589934  0.03607115    -0.73840
O95         O  0.93320725  0.84643780  0.12595518    -0.73690
O96         O  0.96405325  0.88578743  0.07687158    -0.79350
O97         O  0.91606554  0.88318988  0.16443297    -0.77550
O98         O  0.90145555  0.90353450  0.10011360    -1.13690
O99         O  0.87739831  0.93665474  0.15662048    -0.72880
C100        C  0.84640439  0.92958956  0.15037451     0.97840
C101        C  0.89969972  0.90220229  0.02062488     0.94230
Al102      Al  0.91991086  0.86535575  0.08306996     1.55560
O103        O  0.87581197  0.96773891  0.08871265    -0.77500
C104        C  0.92744089  0.85405430  0.15681700     0.98400
C105        C  0.84925885  0.84872841  0.07623199     0.93280
O106        O  0.84395594  0.87940915  0.06779774    -0.82820
O107        O  0.84535536  0.07129391  0.87487220    -0.82280
C108        C  0.98398211  0.10085278  0.90297726     0.97070
O109        O  0.96750146  0.07823956  0.88688428    -0.71400
O110        O  0.91526683  0.03664901  0.87705871    -0.74990
Al111      Al  0.92402396  0.08342879  0.86545086     1.48980
C112        C  0.90016864  0.02145829  0.90132619     0.92330
O113        O  0.87428153  0.09036293  0.96572231    -0.81210
O114        O  0.87973731  0.15804366  0.93651972    -0.74770
Al115      Al  0.86438241  0.08280713  0.91822073     1.90120
O116        O  0.92534741  0.11413666  0.96690905    -0.73840
O117        O  0.92065979  0.16499771  0.88439427    -0.73690
O118        O  0.96873429  0.12570750  0.91655566    -0.79350
O119        O  0.93632671  0.12663066  0.84647554    -0.77550
O120        O  0.90364065  0.10091000  0.90261470    -1.13690
O121        O  0.88418052  0.08599495  0.83743480    -0.72880
C122        C  0.85435442  0.07580485  0.84427532     0.97840
C123        C  0.90025545  0.10066694  0.98221595     0.94230
Al124      Al  0.92201520  0.13725676  0.92416692     1.55560
O125        O  0.88308087  0.03798244  0.92327636    -0.77500
C126        C  0.93096159  0.15741469  0.85479374     0.98400
C127        C  0.84903765  0.15320567  0.92747966     0.93280
O128        O  0.84033218  0.12503756  0.91431019    -0.82820
O129        O  0.87616658  0.08507547  0.16331480    -0.82280
C130        C  0.89920088  0.10025031  0.01983088     0.97070
O131        O  0.87368295  0.08707962  0.03465134    -0.71400
O132        O  0.88697719  0.03585011  0.07656051    -0.74990
Al133      Al  0.86278554  0.07744167  0.08141503     1.48980
C134        C  0.90145355  0.02010302  0.10078612     0.92330
O135        O  0.96213453  0.07885739  0.11810414    -0.81210
O136        O  0.91130677  0.16377196  0.12050725    -0.74770
Al137      Al  0.91806809  0.08279768  0.13820209     1.90120
O138        O  0.96285295  0.12683028  0.08870039    -0.73840
O139        O  0.87140625  0.15480176  0.06722620    -0.73690
O140        O  0.92191429  0.11574524  0.03677636    -0.79350
O141        O  0.83410648  0.11621881  0.08421146    -0.77550
O142        O  0.89888271  0.09911949  0.09983149    -1.13690
O143        O  0.84297977  0.06319956  0.12379973    -0.72880
C144        C  0.84792692  0.07181106  0.15457089     0.97840
C145        C  0.97828181  0.10142612  0.10153027     0.94230
Al146      Al  0.91542754  0.13696344  0.08007079     1.55560
O147        O  0.91154304  0.03564026  0.12727954    -0.77500
C148        C  0.84076369  0.14563597  0.07284107     0.98400
C149        C  0.92193047  0.15641573  0.15013011     0.93280
O150        O  0.92895834  0.12592929  0.15785447    -0.82820
O151        O  0.15832941  0.12176373  0.93761457    -0.82280
C152        C  0.02160099  0.10081422  0.90246730     0.97070
O153        O  0.03813011  0.11706918  0.92509503    -0.71400
O154        O  0.09038859  0.12543001  0.96779446    -0.74990
Al155      Al  0.08254213  0.13666724  0.92047308     1.48980
C156        C  0.10106428  0.09924334  0.98359330     0.92330
O157        O  0.12556274  0.03320988  0.91534276    -0.81210
O158        O  0.12640951  0.06716355  0.84615485    -0.74770
Al159      Al  0.13761232  0.07965247  0.92420830     1.90120
O160        O  0.07793495  0.03512355  0.88550678    -0.73840
O161        O  0.08648828  0.11974264  0.83905475    -0.73690
O162        O  0.03665657  0.08738218  0.87724125    -0.79350
O163        O  0.07060717  0.15693839  0.87749430    -0.77550
O164        O  0.10096905  0.09827692  0.90347972    -1.13690
O165        O  0.12448252  0.16142298  0.91740834    -0.72880
C166        C  0.15294797  0.15267159  0.93010869     0.97840
C167        C  0.10037587  0.01835380  0.90152514     0.94230
Al168      Al  0.08340363  0.07907917  0.86554244     1.55560
O169        O  0.11506167  0.07500449  0.96744343    -0.77500
C170        C  0.07630093  0.14931092  0.84666618     0.98400
C171        C  0.15734525  0.07277659  0.85406179     0.93280
O172        O  0.16510876  0.08228285  0.88397967    -0.82820
O173        O  0.07987111  0.11581646  0.16506727    -0.82280
C174        C  0.10011930  0.09910372  0.02147537     0.97070
O175        O  0.08664471  0.12429403  0.03681618    -0.71400
O176        O  0.03273039  0.11578524  0.07801170    -0.74990
Al177      Al  0.07723706  0.13550865  0.08388983     1.48980
C178        C  0.01595307  0.10014495  0.10080168     0.92330
O179        O  0.07278493  0.03346068  0.11382867    -0.81210
O180        O  0.15947931  0.08424881  0.12518369    -0.74770
Al181      Al  0.07735564  0.07624811  0.13701552     1.90120
O182        O  0.12414108  0.03341695  0.09095989    -0.73840
O183        O  0.15509963  0.12379502  0.07060036    -0.73690
O184        O  0.11524350  0.07574323  0.03812084    -0.79350
O185        O  0.11799659  0.16162936  0.08803850    -0.77550
O186        O  0.09623837  0.09742142  0.10097191    -1.13690
O187        O  0.06478006  0.15449234  0.12715820    -0.72880
C188        C  0.06977280  0.14562059  0.15788294     0.97840
C189        C  0.09788167  0.01742412  0.10126437     0.94230
Al190      Al  0.13495539  0.08071260  0.08278976     1.55560
O191        O  0.03107314  0.08556216  0.12528059    -0.77500
C192        C  0.14739706  0.15445715  0.07698632     0.98400
C193        C  0.15011146  0.07122104  0.15329209     0.93280
O194        O  0.11926806  0.06262263  0.15751910    -0.82820
C195        C  0.49863829  0.23758808  0.26239216     0.00080
C196        C  0.49743587  0.26253441  0.23826956     0.00080
C197        C  0.23587396  0.26091167  0.50369099     0.00080
C198        C  0.25655541  0.23322641  0.50276800     0.00080
C199        C  0.25637584  0.50417003  0.23442119     0.00080
C200        C  0.23021760  0.50502752  0.25725192     0.00080
C201        C  0.22783547  0.24846195  0.00368430     0.00080
C202        C  0.25268062  0.27273113  0.00525442     0.00080
C203        C  0.24085090  0.00080708  0.23705041     0.00080
C204        C  0.26537075  0.00071746  0.26158782     0.00080
C205        C  0.50238815  0.76596551  0.74259893     0.00080
C206        C  0.50183328  0.74105113  0.76666085     0.00080
C207        C  0.23899757  0.73667913  0.50517998     0.00080
C208        C  0.26629898  0.75802564  0.50448756     0.00080
C209        C  0.49870614  0.73715607  0.24129042     0.00080
C210        C  0.50010038  0.76549469  0.26133102     0.00080
O211        O  0.34296025  0.87751095  0.43686469    -0.82280
C212        C  0.47946311  0.89998093  0.40229459     0.97070
O213        O  0.46295726  0.88228518  0.42370383    -0.71400
O214        O  0.41065040  0.87367355  0.46619936    -0.74990
Al215      Al  0.41834032  0.86344390  0.41843492     1.48980
C216        C  0.39993768  0.89973112  0.48223007     0.92330
O217        O  0.37358360  0.96713827  0.41534418    -0.81210
O218        O  0.37461870  0.93506406  0.34622392    -0.74770
Al219      Al  0.36309700  0.92004936  0.42351907     1.90120
O220        O  0.42228906  0.96663305  0.38775549    -0.73840
O221        O  0.41604406  0.88410489  0.33745694    -0.73690
O222        O  0.46441462  0.91527794  0.37806032    -0.79350
O223        O  0.42961151  0.84460545  0.37470248    -0.77550
O224        O  0.40001724  0.90241839  0.40260912    -1.13690
O225        O  0.37650414  0.83887697  0.41464296    -0.72880
C226        C  0.34867786  0.84681143  0.42880193     0.97840
C227        C  0.39888778  0.98279415  0.40287326     0.94230
Al228      Al  0.41779411  0.92342722  0.36583893     1.55560
O229        O  0.38610695  0.92432865  0.46635650    -0.77500
C230        C  0.42507081  0.85395253  0.34408700     0.98400
C231        C  0.34393598  0.92776928  0.35363360     0.93280
O232        O  0.33599800  0.91729453  0.38317799    -0.82820
O233        O  0.43498757  0.12561680  0.34853298    -0.82280
C234        C  0.39937595  0.10020054  0.48336353     0.97070
O235        O  0.42399938  0.11401860  0.46756043    -0.71400
O236        O  0.46650991  0.12626544  0.41618057    -0.74990
Al237      Al  0.41936929  0.13691752  0.42485952     1.48980
C238        C  0.48193533  0.10088121  0.40357480     0.92330
O239        O  0.41343665  0.03575869  0.37809861    -0.81210
O240        O  0.34350085  0.07016218  0.37586254    -0.74770
Al241      Al  0.42228962  0.08256722  0.36707283     1.90120
O242        O  0.38193647  0.03679259  0.42467576    -0.73840
O243        O  0.33797763  0.12286270  0.41609791    -0.73690
O244        O  0.37332562  0.08912226  0.46731255    -0.79350
O245        O  0.37665440  0.15673706  0.43826306    -0.77550
O246        O  0.40158206  0.09999270  0.40395335    -1.13690
O247        O  0.41635492  0.16426852  0.38468279    -0.72880
C248        C  0.42786860  0.15636365  0.35559534     0.97840
C249        C  0.39889803  0.02044082  0.40257231     0.94230
Al250      Al  0.36272489  0.08133554  0.41969120     1.55560
O251        O  0.46542016  0.07722269  0.38909734    -0.77500
C252        C  0.34590495  0.15084621  0.42993418     0.98400
C253        C  0.35259692  0.07598288  0.34541066     0.93280
O254        O  0.38267997  0.08572101  0.33898135    -0.82820
O255        O  0.62347957  0.84555733  0.43747259    -0.82280
C256        C  0.59806332  0.98088523  0.40133197     0.97070
O257        O  0.61407690  0.96468484  0.42434116    -0.71400
O258        O  0.62561217  0.91275689  0.46657561    -0.74990
Al259      Al  0.63509893  0.92123228  0.41901586     1.48980
C260        C  0.59965897  0.90169251  0.48251861     0.92330
O261        O  0.53263683  0.87475795  0.41592571    -0.81210
O262        O  0.56396281  0.87428816  0.34736140    -0.74770
Al263      Al  0.57993053  0.86459728  0.42441349     1.90120
O264        O  0.53323848  0.92315346  0.38750587    -0.73840
O265        O  0.61602479  0.91515025  0.33799027    -0.73690
O266        O  0.58459159  0.96538186  0.37621795    -0.79350
O267        O  0.65344844  0.93367442  0.37556529    -0.77550
O268        O  0.59694974  0.90144705  0.40300196    -1.13690
O269        O  0.66102736  0.88053508  0.41494896    -0.72880
C270        C  0.65397606  0.85226448  0.42872916     0.97840
C271        C  0.51706393  0.89994787  0.40298967     0.94230
Al272      Al  0.57619936  0.91806455  0.36562819     1.55560
O273        O  0.57511109  0.88785919  0.46665990    -0.77500
C274        C  0.64525906  0.92690685  0.34504315     0.98400
C275        C  0.57085048  0.84378610  0.35577938     0.93280
O276        O  0.58272967  0.83683574  0.38497684    -0.82820
O277        O  0.62516925  0.06790220  0.34568000    -0.82280
C278        C  0.59840523  0.10007362  0.48289567     0.97070
O279        O  0.61227593  0.07577865  0.46687640    -0.71400
O280        O  0.62338663  0.03358355  0.41576331    -0.74990
Al281      Al  0.63521921  0.08008709  0.42434487     1.48980
C282        C  0.59864053  0.01850762  0.40148597     0.92330
O283        O  0.53459491  0.08723232  0.37727637    -0.81210
O284        O  0.56882306  0.15737484  0.37688411    -0.74770
Al285      Al  0.58158302  0.07934747  0.36510117     1.90120
O286        O  0.53617434  0.11813810  0.42441854    -0.73840
O287        O  0.62293070  0.16206244  0.41679750    -0.73690
O288        O  0.58796703  0.12639709  0.46724411    -0.79350
O289        O  0.65601498  0.12212092  0.43771974    -0.77550
O290        O  0.59892536  0.09876079  0.40308766    -1.13690
O291        O  0.66302703  0.08228175  0.38485980    -0.72880
C292        C  0.65593718  0.07286845  0.35479253     0.97840
C293        C  0.51960830  0.10120253  0.40235257     0.94230
Al294      Al  0.58062281  0.13741794  0.41984081     1.55560
O295        O  0.57651734  0.03513444  0.38488356    -0.77500
C296        C  0.65131734  0.15295471  0.42949319     0.98400
C297        C  0.57358202  0.14947295  0.34598205     0.93280
O298        O  0.58398399  0.11999209  0.33841823    -0.82820
O299        O  0.58265492  0.83685721  0.61848115    -0.82280
C300        C  0.60075549  0.98043369  0.60082856     0.97070
O301        O  0.58823190  0.96502032  0.62642790    -0.71400
O302        O  0.53519306  0.92403130  0.61656139    -0.74990
Al303      Al  0.57899355  0.91814946  0.63739873     1.48980
C304        C  0.51847225  0.90143855  0.60057005     0.92330
O305        O  0.57548623  0.88777697  0.53615619    -0.81210
O306        O  0.66193743  0.87873296  0.58700135    -0.74770
Al307      Al  0.58015198  0.86464802  0.57868836     1.90120
O308        O  0.62641089  0.91171115  0.53574821    -0.73840
O309        O  0.65608333  0.93284681  0.62610296    -0.73690
O310        O  0.61598226  0.96410245  0.57745649    -0.79350
O311        O  0.61963994  0.91420288  0.66413168    -0.77550
O312        O  0.59841742  0.90112289  0.59966162    -1.13690
O313        O  0.56625502  0.87506342  0.65614197    -0.72880
C314        C  0.57218282  0.84435889  0.64804140     0.97840
C315        C  0.59998422  0.90136747  0.52008514     0.94230
Al316      Al  0.63666933  0.92018304  0.58298829     1.55560
O317        O  0.53346547  0.87619871  0.58724794    -0.77500
C318        C  0.64875910  0.92602376  0.65681703     0.98400
C319        C  0.65356816  0.85019428  0.57429902     0.93280
O320        O  0.62283674  0.84453145  0.56566360    -0.82820
O321        O  0.65574313  0.06604500  0.62533703    -0.82280
C322        C  0.51829639  0.09869198  0.60118132     0.97070
O323        O  0.53469855  0.07461618  0.61527464    -0.71400
O324        O  0.58758604  0.03341643  0.62601881    -0.74990
Al325      Al  0.57824810  0.08002834  0.63715541     1.48980
C326        C  0.60034106  0.01810504  0.60061839     0.92330
O327        O  0.62417395  0.08718719  0.53569416    -0.81210
O328        O  0.62283629  0.15508736  0.56824280    -0.74770
Al329      Al  0.63595490  0.07857745  0.58242662     1.90120
O330        O  0.57521801  0.11508787  0.53691380    -0.73840
O331        O  0.58442115  0.16141130  0.62200719    -0.73690
O332        O  0.53376283  0.12461847  0.58967061    -0.79350
O333        O  0.56494620  0.12261628  0.65729819    -0.77550
O334        O  0.59813270  0.09785788  0.59994799    -1.13690
O335        O  0.61880898  0.08360364  0.66369243    -0.72880
C336        C  0.64807319  0.07229531  0.65609059     0.97840
C337        C  0.59853317  0.09988353  0.52047708     0.94230
Al338      Al  0.58054816  0.13558318  0.58085892     1.55560
O339        O  0.61509576  0.03464449  0.57710431    -0.77500
C340        C  0.57267778  0.15334832  0.65098131     0.98400
C341        C  0.65382165  0.14885216  0.57491720     0.93280
O342        O  0.66248567  0.11970438  0.58572797    -0.82820
O343        O  0.41482020  0.16211466  0.62160365    -0.82280
C344        C  0.39967829  0.01948069  0.60058778     0.97070
O345        O  0.41190920  0.03440139  0.62660525    -0.71400
O346        O  0.46422722  0.07525991  0.61578754    -0.74990
Al347      Al  0.42124868  0.08107432  0.63788058     1.48980
C348        C  0.48061046  0.09898339  0.60127093     0.92330
O349        O  0.42302493  0.11464380  0.53745991    -0.81210
O350        O  0.33686283  0.11943740  0.58847722    -0.74770
Al351      Al  0.41804059  0.13610474  0.58096733     1.90120
O352        O  0.37305585  0.08871991  0.53651311    -0.73840
O353        O  0.34455987  0.06562753  0.62664163    -0.73690
O354        O  0.38447932  0.03604437  0.57735250    -0.79350
O355        O  0.38094741  0.08499237  0.66481133    -0.77550
O356        O  0.40096315  0.09862926  0.60068452    -1.13690
O357        O  0.43502358  0.12395384  0.65736277    -0.72880
C358        C  0.42780136  0.15465036  0.65019736     0.97840
C359        C  0.39904713  0.10030006  0.52106271     0.94230
Al360      Al  0.36312042  0.07912966  0.58364999     1.55560
O361        O  0.46519412  0.12497292  0.58957067    -0.77500
C362        C  0.35170053  0.07343216  0.65719785     0.98400
C363        C  0.34412468  0.14859186  0.57680702     0.93280
O364        O  0.37462997  0.15591742  0.56865897    -0.82820
O365        O  0.41556941  0.88314482  0.66452638    -0.82280
C366        C  0.40022087  0.89966120  0.52001633     0.97070
O367        O  0.41173735  0.87392410  0.53598784    -0.71400
O368        O  0.46441066  0.88611218  0.57767902    -0.74990
Al369      Al  0.42108419  0.86464444  0.58365550     1.48980
C370        C  0.48082110  0.90191830  0.60072102     0.92330
O371        O  0.42311126  0.96607193  0.61543816    -0.81210
O372        O  0.33660743  0.91717212  0.61914344    -0.74770
Al373      Al  0.41834629  0.92309408  0.63711945     1.90120
O374        O  0.37461675  0.96651830  0.58675383    -0.73840
O375        O  0.34442700  0.87596727  0.56734249    -0.73690
O376        O  0.38612122  0.92383666  0.53602238    -0.79350
O377        O  0.38054645  0.83852241  0.58851425    -0.77550
O378        O  0.40122743  0.90256491  0.59989541    -1.13690
O379        O  0.43468114  0.84629175  0.62709461    -0.72880
C380        C  0.42814176  0.85432324  0.65768881     0.97840
C381        C  0.39982411  0.98207542  0.59982079     0.94230
Al382      Al  0.36385574  0.91943072  0.57905981     1.55560
O383        O  0.46551930  0.91494456  0.62605868    -0.77500
C384        C  0.35142281  0.84573842  0.57647646     0.98400
C385        C  0.34428331  0.92862196  0.64831477     0.93280
O386        O  0.37507449  0.93523854  0.65602169    -0.82820
C387        C  0.76526057  0.74076735  0.50104220     0.00080
C388        C  0.74345417  0.76772027  0.50115847     0.00080
C389        C  0.24378631  0.50011898  0.73493510     0.00080
C390        C  0.26784106  0.50036642  0.75985711     0.00080
C391        C  0.50090292  0.24361974  0.73440595     0.00080
C392        C  0.50110065  0.26539156  0.76132178     0.00080
O393        O  0.62191604  0.66146264  0.09023411    -0.82280
C394        C  0.59961266  0.51748566  0.10302113     0.97070
O395        O  0.62554378  0.53312164  0.09168088    -0.71400
O396        O  0.61376547  0.57496783  0.03957456    -0.74990
Al397      Al  0.63611067  0.58015846  0.08274141     1.48980
C398        C  0.59978619  0.59927288  0.02339026     0.92330
O399        O  0.53618382  0.61659423  0.07986760    -0.81210
O400        O  0.58293239  0.61738204  0.16729711    -0.74770
Al401      Al  0.58036068  0.63618578  0.08588168     1.90120
O402        O  0.53394796  0.58597487  0.12707561    -0.73840
O403        O  0.62363700  0.56492285  0.15939077    -0.73690
O404        O  0.57570829  0.53381346  0.11731030    -0.79350
O405        O  0.66245259  0.58388592  0.12342085    -0.77550
O406        O  0.59877729  0.59776463  0.10264937    -1.13690
O407        O  0.65627441  0.62279891  0.06921746    -0.72880
C408        C  0.65041950  0.65346929  0.07738103     0.97840
C409        C  0.51924743  0.60022752  0.10197406     0.94230
Al410      Al  0.58059614  0.57726633  0.13942842     1.55560
O411        O  0.58909424  0.62554911  0.03890719    -0.77500
C412        C  0.65438797  0.57272294  0.15265439     0.98400
C413        C  0.57323295  0.64717964  0.15959148     0.93280
O414        O  0.56787347  0.65510353  0.12876079    -0.82820
O415        O  0.65626955  0.62209172  0.94140341    -0.82280
C416        C  0.52075031  0.60157756  0.90262767     0.97070
O417        O  0.53680149  0.61547989  0.92721784    -0.71400
O418        O  0.58904963  0.62570647  0.97029797    -0.74990
Al419      Al  0.58092741  0.63660398  0.92318846     1.48980
C420        C  0.59929380  0.59927881  0.98580674     0.92330
O421        O  0.62379456  0.53432571  0.91771660    -0.81210
O422        O  0.62796705  0.56910656  0.84872086    -0.74770
Al423      Al  0.63603574  0.57999597  0.92746579     1.90120
O424        O  0.57762227  0.53704198  0.88546557    -0.73840
O425        O  0.58903855  0.62313709  0.84153698    -0.73690
O426        O  0.53671518  0.59031630  0.87673405    -0.79350
O427        O  0.56854282  0.65695250  0.88079809    -0.77550
O428        O  0.60028841  0.59906463  0.90574135    -1.13690
O429        O  0.62269573  0.66178062  0.92022802    -0.72880
C430        C  0.65128232  0.65278931  0.93264498     0.97840
C431        C  0.59918697  0.52000130  0.90251292     0.94230
Al432      Al  0.58419851  0.58138348  0.86660593     1.55560
O433        O  0.61213171  0.57473213  0.96945078    -0.77500
C434        C  0.57647446  0.65155943  0.85000357     0.98400
C435        C  0.65856660  0.57299570  0.85872206     0.93280
O436        O  0.66518180  0.58229871  0.88887624    -0.82820
O437        O  0.38003836  0.58727686  0.16320112    -0.82280
C438        C  0.40107076  0.60037505  0.01921057     0.97070
O439        O  0.37511964  0.58878305  0.03455948    -0.71400
O440        O  0.38556935  0.53742031  0.07658438    -0.74990
Al441      Al  0.36439249  0.58062328  0.08153848     1.48980
C442        C  0.40049380  0.52119165  0.10019557     0.92330
O443        O  0.46491103  0.57830318  0.11683573    -0.81210
O444        O  0.41692926  0.66493516  0.11788730    -0.74770
Al445      Al  0.42114586  0.58372498  0.13706347     1.90120
O446        O  0.46666693  0.62603246  0.08715672    -0.73840
O447        O  0.37657664  0.65713142  0.06513697    -0.73690
O448        O  0.42474714  0.61525875  0.03541019    -0.79350
O449        O  0.33834848  0.62121870  0.08499627    -0.77550
O450        O  0.40197607  0.60048344  0.09885303    -1.13690
O451        O  0.34483537  0.56797557  0.12413100    -0.72880
C452        C  0.35113679  0.57540764  0.15492947     0.97840
C453        C  0.48163439  0.60088242  0.10095146     0.94230
Al454      Al  0.41973210  0.63745255  0.07820034     1.55560
O455        O  0.41272480  0.53654622  0.12603019    -0.77500
C456        C  0.34590579  0.65018111  0.07296412     0.98400
C457        C  0.42773460  0.65773514  0.14740346     0.93280
O458        O  0.43342921  0.62707377  0.15593066    -0.82820
O459        O  0.33857558  0.58429163  0.88101302    -0.82280
C460        C  0.48284381  0.60142579  0.90200892     0.97070
O461        O  0.46751547  0.58827572  0.87663745    -0.71400
O462        O  0.42501534  0.53559525  0.88535097    -0.74990
Al463      Al  0.42045370  0.57975540  0.86478673     1.48980
C464        C  0.40172827  0.51925546  0.90078310     0.92330
O465        O  0.38609742  0.57691211  0.96549172    -0.81210
O466        O  0.38076473  0.66362153  0.91695698    -0.74770
Al467      Al  0.36513792  0.58151634  0.92182159     1.90120
O468        O  0.41393438  0.62583308  0.96649042    -0.73840
O469        O  0.43430505  0.65745627  0.87711519    -0.73690
O470        O  0.46622236  0.61683848  0.92499437    -0.79350
O471        O  0.41769860  0.62035722  0.83854665    -0.77550
O472        O  0.40272122  0.59939484  0.90228165    -1.13690
O473        O  0.37762881  0.56778448  0.84441356    -0.72880
C474        C  0.34675579  0.57423609  0.85149407     0.97840
C475        C  0.40134640  0.60031794  0.98176336     0.94230
Al476      Al  0.42208515  0.63738416  0.91984734     1.55560
O477        O  0.37652935  0.53472981  0.91370237    -0.77500
C478        C  0.42847380  0.64970639  0.84630910     0.98400
C479        C  0.35155436  0.65485146  0.92767070     0.93280
O480        O  0.34515854  0.62386855  0.93402313    -0.82820
O481        O  0.56438989  0.37871342  0.84557444    -0.82280
C482        C  0.60055922  0.40133093  0.98060346     0.97070
O483        O  0.57809775  0.38466910  0.96416274    -0.71400
O484        O  0.53553302  0.37383772  0.91238899    -0.74990
Al485      Al  0.58324781  0.36446578  0.92023656     1.48980
C486        C  0.51935732  0.40013183  0.90270173     0.92330
O487        O  0.58512737  0.46778835  0.87650284    -0.81210
O488        O  0.65495499  0.43588506  0.87468899    -0.74770
Al489      Al  0.57709028  0.42118004  0.86542711     1.90120
O490        O  0.61501177  0.46624273  0.92403401    -0.73840
O491        O  0.66435198  0.38369964  0.91508773    -0.73690
O492        O  0.62582595  0.41485909  0.96548126    -0.79350
O493        O  0.62665283  0.34600878  0.93223392    -0.77550
O494        O  0.59909107  0.40314733  0.90146339    -1.13690
O495        O  0.58722433  0.33951685  0.87844309    -0.72880
C496        C  0.57402921  0.34822913  0.85023550     0.97840
C497        C  0.59860596  0.48270869  0.90168659     0.94230
Al498      Al  0.63666091  0.42344432  0.91835062     1.55560
O499        O  0.53497598  0.42503041  0.88934938    -0.77500
C500        C  0.65725305  0.35429237  0.92607258     0.98400
C501        C  0.64611354  0.42996627  0.84406493     0.93280
O502        O  0.61632343  0.41948525  0.83703770    -0.82820
O503        O  0.65398667  0.37334611  0.06784845    -0.82280
C504        C  0.51713303  0.40186182  0.10018691     0.97070
O505        O  0.53288526  0.38930850  0.07495492    -0.71400
O506        O  0.58423732  0.37714603  0.03295094    -0.74990
Al507      Al  0.57510018  0.36502902  0.07899706     1.48980
C508        C  0.59956489  0.40132613  0.01821912     0.92330
O509        O  0.62463055  0.46419005  0.08899055    -0.81210
O510        O  0.62335522  0.43078196  0.15701656    -0.74770
Al511      Al  0.63566090  0.41703151  0.07982286     1.90120
O512        O  0.57586295  0.46323880  0.11745739    -0.73840
O513        O  0.58396111  0.37606505  0.16109137    -0.73690
O514        O  0.53324976  0.41101812  0.12669926    -0.79350
O515        O  0.56154298  0.34429740  0.12067118    -0.77550
O516        O  0.59713238  0.40043070  0.09835309    -1.13690
O517        O  0.61401213  0.33594763  0.08078588    -0.72880
C518        C  0.64443085  0.34270791  0.07222508     0.97840
C519        C  0.59938784  0.47966715  0.10233204     0.94230
Al520      Al  0.58054582  0.41863880  0.13704376     1.55560
O521        O  0.61635982  0.42311103  0.03523958    -0.77500
C522        C  0.57063798  0.34814639  0.15146401     0.98400
C523        C  0.65423774  0.42490399  0.14982531     0.93280
O524        O  0.66187058  0.41311720  0.12086988    -0.82820
O525        O  0.33754146  0.38129385  0.91677858    -0.82280
C526        C  0.48171366  0.39989736  0.90329714     0.97070
O527        O  0.46610223  0.37416718  0.91525790    -0.71400
O528        O  0.42329564  0.38520305  0.96705783    -0.74990
Al529      Al  0.41865011  0.36378347  0.92356233     1.48980
C530        C  0.39997721  0.40118606  0.98272050     0.92330
O531        O  0.38539581  0.46555076  0.92379405    -0.81210
O532        O  0.38302488  0.41488661  0.83840103    -0.74770
Al533      Al  0.36427725  0.42177733  0.91936400     1.90120
O534        O  0.41457330  0.46570035  0.87589736    -0.73840
O535        O  0.43581564  0.37505080  0.84720110    -0.73690
O536        O  0.46549673  0.42373368  0.88878450    -0.79350
O537        O  0.41555097  0.33704822  0.88314151    -0.77550
O538        O  0.40199592  0.40146945  0.90313310    -1.13690
O539        O  0.37533651  0.34470051  0.93597479    -0.72880
C540        C  0.34470390  0.35227640  0.92887406     0.97840
C541        C  0.40152604  0.48152925  0.90081281     0.94230
Al542      Al  0.42288330  0.41837575  0.86597624     1.55560
O543        O  0.37505186  0.41432232  0.96667864    -0.77500
C544        C  0.42833702  0.34444596  0.85448757     0.98400
C545        C  0.35343580  0.42577658  0.84529239     0.93280
O546        O  0.34529269  0.43305567  0.87569619    -0.82820
O547        O  0.33586370  0.41935780  0.11958651    -0.82280
C548        C  0.47947160  0.40237384  0.10086335     0.97070
O549        O  0.46442265  0.41516012  0.12651802    -0.71400
O550        O  0.42312743  0.46740442  0.11544018    -0.74990
Al551      Al  0.41736510  0.42463737  0.13737059     1.48980
C552        C  0.40002826  0.48371790  0.09988797     0.92330
O553        O  0.38466829  0.42535372  0.03606728    -0.81210
O554        O  0.37826826  0.33984136  0.08795189    -0.74770
Al555      Al  0.36285064  0.42143962  0.07937048     1.90120
O556        O  0.41085552  0.37567551  0.03638403    -0.73840
O557        O  0.43235489  0.34763396  0.12762336    -0.73690
O558        O  0.46274919  0.38718527  0.07774553    -0.79350
O559        O  0.41391291  0.38514067  0.16496608    -0.77550
O560        O  0.39993496  0.40411163  0.10012024    -1.13690
O561        O  0.37404805  0.43798332  0.15629791    -0.72880
C562        C  0.34319973  0.43133421  0.14862185     0.97840
C563        C  0.39944454  0.40136830  0.02035942     0.94230
Al564      Al  0.41934794  0.36596569  0.08383641     1.55560
O565        O  0.37448075  0.46845279  0.08703109    -0.77500
C566        C  0.42622885  0.35622613  0.15820553     0.98400
C567        C  0.34929950  0.34783286  0.07591576     0.93280
O568        O  0.34284891  0.37842632  0.06768822    -0.82820
C569        C  0.75992650  0.50285495  0.73759108     0.00080
C570        C  0.73477825  0.50412709  0.76147025     0.00080
C571        C  0.99810016  0.23949012  0.23699035     0.00080
C572        C  0.99812005  0.26132295  0.26390530     0.00080
C573        C  0.75683250  0.26855622  0.50450023     0.00080
C574        C  0.73337764  0.24299668  0.50286820     0.00080
C575        C  0.74161330  0.49943067  0.23638940     0.00080
C576        C  0.76642267  0.49881641  0.26062678     0.00080
O577        O  0.06664084  0.65588656  0.37735746    -0.82280
C578        C  0.10123018  0.51957433  0.40474732     0.97070
O579        O  0.07769202  0.53567503  0.38960303    -0.71400
O580        O  0.03497969  0.58629581  0.37841392    -0.74990
Al581      Al  0.08217988  0.57855848  0.36760448     1.48980
C582        C  0.01941790  0.59969284  0.40335014     0.92330
O583        O  0.08770372  0.62739440  0.46871463    -0.81210
O584        O  0.15535796  0.62569976  0.43832264    -0.74770
Al585      Al  0.07913210  0.63726892  0.42101911     1.90120
O586        O  0.11387267  0.57767990  0.46865792    -0.73840
O587        O  0.16402490  0.58517300  0.38577329    -0.73690
O588        O  0.12645796  0.53517745  0.41766281    -0.79350
O589        O  0.12565589  0.56684040  0.34881883    -0.77550
O590        O  0.09915256  0.59934403  0.40480523    -1.13690
O591        O  0.08442433  0.61832152  0.33984625    -0.72880
C592        C  0.07301689  0.64760963  0.34677758     0.97840
C593        C  0.09951610  0.60175214  0.48466248     0.94230
Al594      Al  0.13648833  0.58242807  0.42580752     1.55560
O595        O  0.03555897  0.61603873  0.42617109    -0.77500
C596        C  0.15638855  0.57379018  0.35651608     0.98400
C597        C  0.14834441  0.65624206  0.43041319     0.93280
O598        O  0.11972772  0.66366420  0.41741619    -0.82820
O599        O  0.93456846  0.62752823  0.34808111    -0.82280
C600        C  0.89972169  0.59771390  0.48303659     0.97070
O601        O  0.92426237  0.61131237  0.46723334    -0.71400
O602        O  0.96639534  0.62455509  0.41714330    -0.74990
Al603      Al  0.91946759  0.63540465  0.42558224     1.48980
C604        C  0.98174455  0.59977970  0.40332273     0.92330
O605        O  0.91258496  0.53575544  0.37515210    -0.81210
O606        O  0.84497877  0.56696739  0.37596347    -0.74770
Al607      Al  0.92173182  0.58344591  0.36552756     1.90120
O608        O  0.88560805  0.53593053  0.42456489    -0.73840
O609        O  0.83776425  0.61996249  0.41613390    -0.73690
O610        O  0.87348283  0.58722394  0.46712671    -0.79350
O611        O  0.87608135  0.65466072  0.43844083    -0.77550
O612        O  0.90183292  0.59931975  0.40350588    -1.13690
O613        O  0.91726065  0.66418462  0.38699170    -0.72880
C614        C  0.92893052  0.65790973  0.35767965     0.97840
C615        C  0.90045096  0.51990346  0.40076495     0.94230
Al616      Al  0.86386424  0.57921412  0.41957399     1.55560
O617        O  0.96535547  0.57736052  0.38671603    -0.77500
C618        C  0.84545926  0.64824094  0.42967515     0.98400
C619        C  0.85234659  0.57519772  0.34559744     0.93280
O620        O  0.88126459  0.58781835  0.33871746    -0.82820
O621        O  0.88203868  0.58568599  0.66458835    -0.82280
C622        C  0.89978884  0.59791272  0.52050002     0.97070
O623        O  0.87347515  0.58759530  0.53621518    -0.71400
O624        O  0.88381667  0.53560144  0.57862694    -0.74990
Al625      Al  0.86354542  0.57967714  0.58346248     1.48980
C626        C  0.89995556  0.51946903  0.60164299     0.92330
O627        O  0.96533039  0.57625998  0.61602753    -0.81210
O628        O  0.91736616  0.66340324  0.61818455    -0.74770
Al629      Al  0.92217143  0.58197562  0.63737560     1.90120
O630        O  0.96666806  0.62441696  0.58727535    -0.73840
O631        O  0.87735961  0.65472314  0.56532550    -0.73690
O632        O  0.92444595  0.61159389  0.53640998    -0.79350
O633        O  0.83802668  0.62123631  0.58698237    -0.77550
O634        O  0.90201856  0.59880413  0.59980051    -1.13690
O635        O  0.84504241  0.56784081  0.62645191    -0.72880
C636        C  0.85265043  0.57466043  0.65706995     0.97840
C637        C  0.98180440  0.59918421  0.60044643     0.94230
Al638      Al  0.91993889  0.63522649  0.57856406     1.55560
O639        O  0.91337272  0.53499631  0.62672044    -0.77500
C640        C  0.84663268  0.64954899  0.57405687     0.98400
C641        C  0.92807738  0.65592950  0.64775161     0.93280
O642        O  0.93472929  0.62528479  0.65568688    -0.82820
O643        O  0.08264514  0.61564313  0.66687974    -0.82280
C644        C  0.09972371  0.60169321  0.52245677     0.97070
O645        O  0.08859756  0.62755076  0.53848917    -0.71400
O646        O  0.03584524  0.61612626  0.57948396    -0.74990
Al647      Al  0.07939215  0.63670177  0.58617483     1.48980
C648        C  0.01924866  0.59910629  0.60136821     0.92330
O649        O  0.07605191  0.53402534  0.61574806    -0.81210
O650        O  0.16227231  0.58385885  0.62267585    -0.74770
Al651      Al  0.08061052  0.57656789  0.63844170     1.90120
O652        O  0.12534133  0.53411493  0.58898913    -0.73840
O653        O  0.15530237  0.62443513  0.57000649    -0.73690
O654        O  0.11376109  0.57727822  0.53838063    -0.79350
O655        O  0.12049443  0.66262658  0.59136759    -0.77550
O656        O  0.09841856  0.59810516  0.60208449    -1.13690
O657        O  0.06604076  0.65432373  0.62988244    -0.72880
C658        C  0.07107436  0.64496886  0.66045068     0.97840
C659        C  0.09972426  0.51828357  0.60067132     0.94230
Al660      Al  0.13581075  0.58133538  0.58176436     1.55560
O661        O  0.03406946  0.58495881  0.62639723    -0.77500
C662        C  0.14913970  0.65492510  0.57867080     0.98400
C663        C  0.15423056  0.57218187  0.65173063     0.93280
O664        O  0.12354935  0.56409769  0.65817570    -0.82820
O665        O  0.91438440  0.33763201  0.38348566    -0.82280
C666        C  0.90055305  0.48213847  0.40108116     0.97070
O667        O  0.91087436  0.46612597  0.37496236    -0.71400
O668        O  0.96365598  0.42475891  0.38672968    -0.74990
Al669      Al  0.91989856  0.41860889  0.36564582     1.48980
C670        C  0.98016011  0.40154177  0.40215938     0.92330
O671        O  0.92379166  0.38512788  0.46751933    -0.81210
O672        O  0.83692375  0.38340558  0.42005614    -0.74770
Al673      Al  0.91807998  0.36440487  0.42380533     1.90120
O674        O  0.87633400  0.41514821  0.46865623    -0.73840
O675        O  0.84454801  0.43528812  0.37936381    -0.73690
O676        O  0.88759635  0.46612447  0.42597172    -0.79350
O677        O  0.87828353  0.41373972  0.34024039    -0.77550
O678        O  0.90102021  0.40209430  0.40405416    -1.13690
O679        O  0.93319690  0.37545419  0.34684742    -0.72880
C680        C  0.92651291  0.34481090  0.35455290     0.97840
C681        C  0.90124251  0.40134902  0.48391921     0.94230
Al682      Al  0.86466589  0.42318601  0.42200402     1.55560
O683        O  0.96495717  0.37580037  0.41472563    -0.77500
C684        C  0.84966662  0.42611510  0.34877762     0.98400
C685        C  0.84411793  0.35371188  0.43042896     0.93280
O686        O  0.87482185  0.34530817  0.43637324    -0.82820
O687        O  0.06266686  0.38039271  0.34545071    -0.82280
C688        C  0.10039478  0.40006867  0.48072292     0.97070
O689        O  0.07635584  0.38533178  0.46452428    -0.71400
O690        O  0.03348643  0.37555329  0.41231129    -0.74990
Al691      Al  0.08050918  0.36457389  0.42031205     1.48980
C692        C  0.01784141  0.40197237  0.40236487     0.92330
O693        O  0.08597146  0.46784709  0.37884453    -0.81210
O694        O  0.15604716  0.43204729  0.37410588    -0.74770
Al695      Al  0.07653503  0.42212174  0.36606396     1.90120
O696        O  0.11917609  0.46495093  0.42414728    -0.73840
O697        O  0.16233478  0.37845225  0.41386291    -0.73690
O698        O  0.12643051  0.41162725  0.46510664    -0.79350
O699        O  0.12279444  0.34394841  0.43290952    -0.77550
O700        O  0.09819844  0.40253879  0.40150738    -1.13690
O701        O  0.08313079  0.33959605  0.37805415    -0.72880
C702        C  0.07045401  0.34936828  0.34979322     0.97840
C703        C  0.10143301  0.48211283  0.40329795     0.94230
Al704      Al  0.13742383  0.42020596  0.41786980     1.55560
O705        O  0.03413786  0.42678201  0.38973730    -0.77500
C706        C  0.15382714  0.35002023  0.42642327     0.98400
C707        C  0.14603421  0.42850540  0.34348958     0.93280
O708        O  0.11543424  0.42024367  0.33702265    -0.82820
O709        O  0.91654135  0.38180639  0.66577527    -0.82280
C710        C  0.90131130  0.40097177  0.52148164     0.97070
O711        O  0.91445227  0.37583421  0.53693751    -0.71400
O712        O  0.96552590  0.38638402  0.57928404    -0.74990
Al713      Al  0.92237711  0.36486350  0.58397226     1.48980
C714        C  0.98186580  0.40171571  0.60250339     0.92330
O715        O  0.92338097  0.46594151  0.61752438    -0.81210
O716        O  0.83731888  0.41624200  0.62161285    -0.74770
Al717      Al  0.91901103  0.42241978  0.63887316     1.90120
O718        O  0.87484689  0.46609817  0.58882090    -0.73840
O719        O  0.84476764  0.37559983  0.56919807    -0.73690
O720        O  0.88510442  0.42369310  0.53761338    -0.79350
O721        O  0.88230595  0.33763122  0.58641669    -0.77550
O722        O  0.90188047  0.40217293  0.60122136    -1.13690
O723        O  0.93453465  0.34555591  0.62702571    -0.72880
C724        C  0.92758621  0.35258920  0.65776241     0.97840
C725        C  0.90006165  0.48185762  0.60169670     0.94230
Al726      Al  0.86403668  0.41892262  0.58109782     1.55560
O727        O  0.96643555  0.41454596  0.62787380    -0.77500
C728        C  0.85291063  0.34494629  0.57530306     0.98400
C729        C  0.84474060  0.42823217  0.65063776     0.93280
O730        O  0.87562285  0.43457641  0.65828833    -0.82820
O731        O  0.12241056  0.41488763  0.66282211    -0.82280
C732        C  0.10018562  0.40098064  0.51855701     0.97070
O733        O  0.12599171  0.41287567  0.53417540    -0.71400
O734        O  0.11457440  0.46498492  0.57647279    -0.74990
Al735      Al  0.13662599  0.42205062  0.58138045     1.48980
C736        C  0.09986006  0.48083851  0.60047257     0.92330
O737        O  0.03624465  0.42309743  0.61878166    -0.81210
O738        O  0.08434020  0.33719567  0.61792465    -0.74770
Al739      Al  0.08078304  0.41806121  0.63770831     1.90120
O740        O  0.03454964  0.37661613  0.58724754    -0.73840
O741        O  0.12458534  0.34566844  0.56555561    -0.73690
O742        O  0.07602452  0.38731725  0.53505853    -0.79350
O743        O  0.16310701  0.38185023  0.58502107    -0.77550
O744        O  0.09930551  0.40182958  0.59903268    -1.13690
O745        O  0.15677973  0.43554946  0.62388448    -0.72880
C746        C  0.15077235  0.42786236  0.65465056     0.97840
C747        C  0.01953723  0.40112109  0.60203665     0.94230
Al748      Al  0.08136751  0.36506308  0.57827445     1.55560
O749        O  0.08835024  0.46519459  0.62641548    -0.77500
C750        C  0.15534568  0.35292069  0.57310021     0.98400
C751        C  0.07510345  0.34400469  0.64803129     0.93280
O752        O  0.06961710  0.37454054  0.65695008    -0.82820
C753        C  0.77665675  0.46697893  0.27879804    -0.00640
C754        C  0.80386334  0.44776359  0.26533617    -0.12510
C755        C  0.82708267  0.43108691  0.28728131     0.01600
C756        C  0.82209533  0.43273560  0.32317539    -0.00730
C757        C  0.79085915  0.44581693  0.33544155    -0.12450
C758        C  0.76842953  0.46322355  0.31375420     0.01480
H759        H  0.80934898  0.44923986  0.23816044     0.14460
H760        H  0.78534883  0.44549453  0.36268780     0.14460
C761        C  0.73963362  0.48057394  0.32912650     0.36110
C762        C  0.85690034  0.41518463  0.27232546     0.36020
N763        N  0.71708379  0.49450983  0.34238621    -0.44230
N764        N  0.88073540  0.40245349  0.26013891    -0.44230
C765        C  0.78514215  0.53009656  0.27224025    -0.00640
C766        C  0.77091949  0.54948252  0.29891194    -0.12510
C767        C  0.79220559  0.56712422  0.32199528     0.01600
C768        C  0.82818094  0.56652131  0.31755952    -0.00730
C769        C  0.84162445  0.55213921  0.28756864    -0.12450
C770        C  0.82050005  0.53378381  0.26507833     0.01480
H771        H  0.74360154  0.54792359  0.30384562     0.14460
H772        H  0.86914747  0.55228232  0.28338135     0.14460
C773        C  0.83646836  0.51632367  0.23672623     0.36110
C774        C  0.77669399  0.58423713  0.35081819     0.36020
N775        N  0.84986731  0.50234959  0.21430304    -0.44230
N776        N  0.76414555  0.59805086  0.37381504    -0.44230
C777        C  0.81606307  0.32956423  0.43884324    -0.00640
C778        C  0.78562422  0.34310496  0.45224127    -0.12510
C779        C  0.76252030  0.32220905  0.46985534     0.01600
C780        C  0.76928084  0.28690129  0.47350774    -0.00730
C781        C  0.79674978  0.27254361  0.45528794    -0.12450
C782        C  0.82051217  0.29363327  0.43847477     0.01480
H783        H  0.78142621  0.37056717  0.45195161     0.14460
H784        H  0.80185932  0.24532541  0.45756187     0.14460
C785        C  0.85002910  0.27792388  0.42269814     0.36110
C786        C  0.73388179  0.33837539  0.48667181     0.36020
N787        N  0.87362982  0.26522267  0.41004479    -0.44230
N788        N  0.71098318  0.35195362  0.49969857    -0.44230
C789        C  0.77729518  0.27640907  0.53602379    -0.00640
C790        C  0.81209123  0.26679921  0.53501332    -0.12510
C791        C  0.83752578  0.28754968  0.54970155     0.01600
C792        C  0.82793221  0.31754445  0.56739545    -0.00730
C793        C  0.79304413  0.32362954  0.57353323    -0.12450
C794        C  0.76772353  0.30303877  0.55846319     0.01480
H795        H  0.81981222  0.24573352  0.51865393     0.14460
H796        H  0.78551175  0.34576282  0.58853557     0.14460
C797        C  0.73245260  0.31102191  0.56571032     0.36110
C798        C  0.87299015  0.28007749  0.54199772     0.36020
N799        N  0.70475071  0.31851678  0.57318834    -0.44230
N800        N  0.90138636  0.27426025  0.53559431    -0.44230
C801        C  0.06217462  0.32446279  0.32199502    -0.00640
C802        C  0.06263494  0.28907396  0.32899349    -0.12510
C803        C  0.04676213  0.26572945  0.30657022     0.01600
C804        C  0.02996936  0.27783844  0.27693227    -0.00730
C805        C  0.03449527  0.31202977  0.26730827    -0.12450
C806        C  0.05006297  0.33545758  0.28940056     0.01480
H807        H  0.07306664  0.27983852  0.35306537     0.14460
H808        H  0.02213839  0.32134653  0.24415896     0.14460
C809        C  0.05029657  0.37090164  0.27865280     0.36110
C810        C  0.04571577  0.22993495  0.31563413     0.36020
N811        N  0.05003001  0.39925576  0.26997587    -0.44230
N812        N  0.04508418  0.20118009  0.32280378    -0.44230
C813        C  0.93493126  0.31729941  0.32979277    -0.00640
C814        C  0.93347163  0.32470747  0.29462046    -0.12510
C815        C  0.94915752  0.30324066  0.27056202     0.01600
C816        C  0.96649802  0.27349125  0.28163064    -0.00730
C817        C  0.96318235  0.26352492  0.31608389    -0.12450
C818        C  0.94867017  0.28552542  0.34038406     0.01480
H819        H  0.92221086  0.34864703  0.28612025     0.14460
H820        H  0.97615634  0.24058216  0.32488592     0.14460
C821        C  0.95299554  0.27702425  0.37617718     0.36110
C822        C  0.94961973  0.31432054  0.23536458     0.36020
N823        N  0.95697193  0.27038228  0.40483017    -0.44230
N824        N  0.94905993  0.32434960  0.20747213    -0.44230
C825        C  0.77275159  0.47028971  0.72205406    -0.00640
C826        C  0.76142247  0.46183857  0.68896260    -0.12510
C827        C  0.78367517  0.44645575  0.66530690     0.01600
C828        C  0.81725002  0.43695276  0.67562454    -0.00730
C829        C  0.82604754  0.43993251  0.71045516    -0.12450
C830        C  0.80418597  0.45644628  0.73358719     0.01480
H831        H  0.73658883  0.47078726  0.68034128     0.14460
H832        H  0.85114265  0.43157691  0.71918443     0.14460
C833        C  0.81603944  0.46162756  0.76827400     0.36110
C834        C  0.77276167  0.44499704  0.62992841     0.36020
N835        N  0.82565696  0.46561167  0.79608341    -0.44230
N836        N  0.76410664  0.44428073  0.60153206    -0.44230
C837        C  0.77756739  0.53387312  0.72446818    -0.00640
C838        C  0.81007542  0.54183984  0.73798333    -0.12510
C839        C  0.83508529  0.55761611  0.71750039     0.01600
C840        C  0.82660907  0.56759840  0.68368214    -0.00730
C841        C  0.79241768  0.56487390  0.67269706    -0.12450
C842        C  0.76836555  0.54700498  0.69199126     0.01480
H843        H  0.81730151  0.53194417  0.76292902     0.14460
H844        H  0.78533386  0.57327092  0.64711089     0.14460
C845        C  0.73638172  0.53835661  0.67530480     0.36110
C846        C  0.86989105  0.55904505  0.73026750     0.36020
N847        N  0.71105273  0.53160353  0.66124624    -0.44230
N848        N  0.89784582  0.55985279  0.74038014    -0.44230
C849        C  0.72551387  0.46790074  0.22195517    -0.00640
C850        C  0.73760476  0.45705992  0.18995661    -0.12510
C851        C  0.71532407  0.44234122  0.16586645     0.01600
C852        C  0.68123315  0.43407847  0.17532114    -0.00730
C853        C  0.67119480  0.43965022  0.20946978    -0.12450
C854        C  0.69250079  0.45733704  0.23238337     0.01480
H855        H  0.76310452  0.46462127  0.18194383     0.14460
H856        H  0.64534602  0.43307604  0.21744730     0.14460
C857        C  0.67820740  0.46730763  0.26491297     0.36110
C858        C  0.72659882  0.44194409  0.13067551     0.36020
N859        N  0.66553660  0.47510672  0.29052390    -0.44230
N860        N  0.73577408  0.44284030  0.10249963    -0.44230
C861        C  0.67015032  0.43829781  0.81604061    -0.00640
C862        C  0.65718818  0.45460686  0.78669264    -0.12510
C863        C  0.67920239  0.47216892  0.76449971     0.01600
C864        C  0.71472756  0.47323741  0.77146141    -0.00730
C865        C  0.72802175  0.45216000  0.79744048    -0.12450
C866        C  0.70602520  0.43505472  0.82002775     0.01480
H867        H  0.62965493  0.45647868  0.78284191     0.14460
H868        H  0.75528599  0.45243007  0.80281024     0.14460
C869        C  0.72083637  0.41606716  0.84817992     0.36110
C870        C  0.66441185  0.49168348  0.73674201     0.36020
N871        N  0.73274096  0.40080677  0.87069103    -0.44230
N872        N  0.65223791  0.50717113  0.71453771    -0.44230
C873        C  0.68665376  0.56475229  0.83483322    -0.00640
C874        C  0.68317831  0.57443267  0.80050069    -0.12510
C875        C  0.70385116  0.55990668  0.77511801     0.01600
C876        C  0.72819283  0.53452761  0.78398479    -0.00730
C877        C  0.73558182  0.52972799  0.81904395    -0.12450
C878        C  0.71438162  0.54361758  0.84443516     0.01480
H879        H  0.66285244  0.59201366  0.79323514     0.14460
H880        H  0.75489398  0.51115733  0.82649811     0.14460
C881        C  0.71858099  0.53173958  0.87927298     0.36110
C882        C  0.69834445  0.57164905  0.74064202     0.36020
N883        N  0.72164502  0.52189319  0.90710012    -0.44230
N884        N  0.69248353  0.58366252  0.71416386    -0.44230
C885        C  0.72848222  0.53176489  0.22124555    -0.00640
C886        C  0.69781470  0.54466894  0.23473648    -0.12510
C887        C  0.67416999  0.56144339  0.21355230     0.01600
C888        C  0.68156272  0.56572883  0.17833311    -0.00730
C889        C  0.71484137  0.55850120  0.16670520    -0.12450
C890        C  0.73837452  0.54171485  0.18794747     0.01480
H891        H  0.69067630  0.53838247  0.26083196     0.14460
H892        H  0.72153016  0.56305663  0.14011983     0.14460
C893        C  0.77111906  0.53218310  0.17373792     0.36110
C894        C  0.64192166  0.57219134  0.22820307     0.36020
N895        N  0.79712030  0.52474016  0.16158802    -0.44230
N896        N  0.61611173  0.58085775  0.23996940    -0.44230
C897        C  0.46973593  0.27528431  0.78087764    -0.00640
C898        C  0.46884766  0.26568762  0.81560161    -0.12510
C899        C  0.45326120  0.28662236  0.84012672     0.01600
C900        C  0.43691929  0.31714804  0.82968394    -0.00730
C901        C  0.43311834  0.32376473  0.79449930    -0.12450
C902        C  0.44895394  0.30281482  0.77004559     0.01480
H903        H  0.48404301  0.24406386  0.82418605     0.14460
H904        H  0.41946080  0.34651614  0.78619052     0.14460
C905        C  0.44512257  0.31153893  0.73434798     0.36110
C906        C  0.45870179  0.27859923  0.87588194     0.36020
N907        N  0.44124807  0.31895924  0.70587969    -0.44230
N908        N  0.46336877  0.27231060  0.90451041    -0.44230
C909        C  0.53320402  0.28132961  0.77445521    -0.00640
C910        C  0.54895925  0.26661381  0.80336777    -0.12510
C911        C  0.56566208  0.28728715  0.82771431     0.01600
C912        C  0.56735909  0.32309606  0.82242329    -0.00730
C913        C  0.55746452  0.33620904  0.79035857    -0.12450
C914        C  0.54009049  0.31587536  0.76668000     0.01480
H915        H  0.54449952  0.23978063  0.80905092     0.14460
H916        H  0.56034538  0.36332684  0.78493576     0.14460
C917        C  0.52608074  0.33253004  0.73677291     0.36110
C918        C  0.57783536  0.27147743  0.85889660     0.36020
N919        N  0.51523538  0.34713094  0.71332157    -0.44230
N920        N  0.58767218  0.25874516  0.88384914    -0.44230
C921        C  0.28612236  0.46905498  0.77148596    -0.00640
C922        C  0.27188877  0.45005369  0.79846501    -0.12510
C923        C  0.29320971  0.43271106  0.82168507     0.01600
C924        C  0.32918252  0.43352180  0.81716546    -0.00730
C925        C  0.34256599  0.44738444  0.78689957    -0.12450
C926        C  0.32144710  0.46537188  0.76425189     0.01480
H927        H  0.24460041  0.45174929  0.80350053     0.14460
H928        H  0.37008575  0.44735502  0.78266422     0.14460
C929        C  0.33755668  0.48292628  0.73598183     0.36110
C930        C  0.27778076  0.41584705  0.85077115     0.36020
N931        N  0.35117669  0.49687506  0.71363932    -0.44230
N932        N  0.26539861  0.40224764  0.87403247    -0.44230
C933        C  0.27751440  0.53196605  0.77885944    -0.00640
C934        C  0.30527455  0.55131724  0.76691419    -0.12510
C935        C  0.32663359  0.56867909  0.79002684     0.01600
C936        C  0.31987064  0.56695918  0.82557936    -0.00730
C937        C  0.28853841  0.55302001  0.83650025    -0.12450
C938        C  0.26719034  0.53578560  0.81329568     0.01480
H939        H  0.31226006  0.55008626  0.74009322     0.14460
H940        H  0.28217061  0.55282211  0.86355074     0.14460
C941        C  0.23628701  0.51976316  0.82591185     0.36110
C942        C  0.35595988  0.58684385  0.77669717     0.36020
N943        N  0.21145665  0.50705142  0.83607191    -0.44230
N944        N  0.37917966  0.60162831  0.76564773    -0.44230
C945        C  0.22642533  0.46827001  0.72297221    -0.00640
C946        C  0.19291749  0.46285729  0.73506360    -0.12510
C947        C  0.16784954  0.44787879  0.71408832     0.01600
C948        C  0.17689877  0.43606997  0.68109252    -0.00730
C949        C  0.21167512  0.43631143  0.67160407    -0.12450
C950        C  0.23643653  0.45216851  0.69231952     0.01480
H951        H  0.18516902  0.47454856  0.75903710     0.14460
H952        H  0.21919959  0.42601050  0.64692362     0.14460
C953        C  0.27146476  0.45292980  0.68062400     0.36110
C954        C  0.13256595  0.44964360  0.72521717     0.36020
N955        N  0.29942122  0.45258209  0.67069697    -0.44230
N956        N  0.10430623  0.45152637  0.73410395    -0.44230
C957        C  0.22882283  0.53208779  0.72064455    -0.00640
C958        C  0.19738175  0.54326691  0.73388917    -0.12510
C959        C  0.17342716  0.55957186  0.71267338     0.01600
C960        C  0.18123815  0.56516376  0.67767107    -0.00730
C961        C  0.21501714  0.55964841  0.66653392    -0.12450
C962        C  0.23886154  0.54337938  0.68786707     0.01480
H963        H  0.19006902  0.53595663  0.75968061     0.14460
H964        H  0.22208636  0.56539635  0.64028342     0.14460
C965        C  0.27265676  0.53647573  0.67462297     0.36110
C966        C  0.14056897  0.56852023  0.72713475     0.36020
N967        N  0.29977326  0.53165216  0.66362255    -0.44230
N968        N  0.11431899  0.57568949  0.73891766    -0.44230
C969        C  0.77587260  0.72243506  0.46927169    -0.00640
C970        C  0.76510897  0.68822195  0.46611338    -0.12510
C971        C  0.78630232  0.66363200  0.45100510     0.01600
C972        C  0.81840039  0.67359706  0.43750386    -0.00730
C973        C  0.82638981  0.70864087  0.43561401    -0.12450
C974        C  0.80507216  0.73313384  0.45088167     0.01480
H975        H  0.74221239  0.67981653  0.47941826     0.14460
H976        H  0.85031534  0.71671225  0.42393075     0.14460
C977        C  0.81488614  0.76869165  0.44906535     0.36110
C978        C  0.77651465  0.62807374  0.45412537     0.36020
N979        N  0.82302724  0.79712603  0.44692487    -0.44230
N980        N  0.76870132  0.59960018  0.45691004    -0.44230
C981        C  0.78016398  0.72602191  0.53301413    -0.00640
C982        C  0.76530314  0.69591927  0.54618357    -0.11870
C983        C  0.78565983  0.67101203  0.56246333     0.01600
C984        C  0.82121157  0.67703053  0.56691034    -0.00730
C985        C  0.83416669  0.70975889  0.55944295    -0.12450
C986        C  0.81431306  0.73388534  0.54210952     0.01480
H987        H  0.73881070  0.68996854  0.53994865     0.14460
H988        H  0.86101816  0.71551432  0.56424621     0.14460
C989        C  0.83138990  0.76451588  0.53052514     0.36110
C990        C  0.77008317  0.63856017  0.57100226     0.36020
N991        N  0.84660180  0.78840608  0.52173014    -0.44230
N992        N  0.75757641  0.61253171  0.57780647    -0.44230
C993        C  0.46901564  0.22833316  0.72012603    -0.00640
C994        C  0.46011218  0.23856846  0.68691260    -0.12510
C995        C  0.44563721  0.21546874  0.66377141     0.01600
C996        C  0.43675503  0.18211736  0.67485397    -0.00730
C997        C  0.44065283  0.17382222  0.70975179    -0.12450
C998        C  0.45698629  0.19653458  0.73234677     0.01480
H999        H  0.46902910  0.26305179  0.67745340     0.14460
H1000       H  0.43332433  0.14857889  0.71883295     0.14460
C1001       C  0.46423321  0.18530920  0.76686827     0.36110
C1002       C  0.44585460  0.22513528  0.62803812     0.36020
N1003       N  0.47007150  0.17616831  0.79449665    -0.44230
N1004       N  0.44690075  0.23296152  0.59944264    -0.44230
C1005       C  0.71918067  0.22619365  0.53395854    -0.00640
C1006       C  0.73435796  0.19560070  0.54552205    -0.12510
C1007       C  0.71452530  0.17032473  0.56187632     0.01600
C1008       C  0.67924477  0.17636071  0.56780949    -0.00730
C1009       C  0.66616047  0.20929637  0.56156401    -0.12450
C1010       C  0.68530221  0.23368308  0.54396303     0.01480
H1011       H  0.76055863  0.18981318  0.53822087     0.14460
H1012       H  0.63955659  0.21504553  0.56737004     0.14460
C1013       C  0.66776702  0.26432741  0.53299877     0.36110
C1014       C  0.73023077  0.13766750  0.56920403     0.36020
N1015       N  0.65285775  0.28860408  0.52475733    -0.44230
N1016       N  0.74283313  0.11147955  0.57508370    -0.44230
C1017       C  0.56517040  0.18044021  0.67672090    -0.00640
C1018       C  0.55988581  0.21412768  0.66525027    -0.12510
C1019       C  0.54380619  0.23834952  0.68623096     0.01600
C1020       C  0.53286451  0.22901345  0.71942599    -0.00730
C1021       C  0.54362271  0.19748866  0.73277842    -0.12450
C1022       C  0.55914920  0.17300798  0.71172596     0.01480
H1023       H  0.56555919  0.22084554  0.63888889     0.14460
H1024       H  0.53627021  0.19042895  0.75863041     0.14460
C1025       C  0.56649814  0.13998856  0.72650740     0.36110
C1026       C  0.53617867  0.27141605  0.67171694     0.36020
N1027       N  0.57203869  0.11369474  0.73896543    -0.44230
N1028       N  0.53027975  0.29753243  0.65900169    -0.44230
C1029       C  0.68036389  0.82428040  0.56654923    -0.00640
C1030       C  0.71427971  0.83548040  0.56185963    -0.12510
C1031       C  0.73825962  0.81484984  0.54503750     0.01600
C1032       C  0.72859835  0.78205082  0.53321970    -0.00730
C1033       C  0.69677602  0.76872932  0.54340207    -0.12450
C1034       C  0.67236371  0.78963514  0.55928250     0.01480
H1035       H  0.72128734  0.86159040  0.56831597     0.14460
H1036       H  0.68943624  0.74318096  0.53528216     0.14460
C1037       C  0.63875006  0.77535409  0.56546663     0.36110
C1038       C  0.77122565  0.82963774  0.53724835     0.36020
N1039       N  0.61183875  0.76368387  0.57007397    -0.44230
N1040       N  0.79718176  0.84274708  0.53128521    -0.44230
C1041       C  0.67852582  0.17872280  0.43736442    -0.00640
C1042       C  0.67019382  0.21374938  0.43723043    -0.12510
C1043       C  0.69180244  0.23784734  0.45304963     0.01600
C1044       C  0.72177845  0.22683670  0.47009750    -0.00730
C1045       C  0.73314849  0.19326793  0.46432725    -0.12450
C1046       C  0.71184612  0.16908300  0.44848916     0.01480
H1047       H  0.64580303  0.22214622  0.42676500     0.14460
H1048       H  0.75709960  0.18487582  0.47581165     0.14460
C1049       C  0.72425681  0.13429925  0.44620544     0.36110
C1050       C  0.68206340  0.27337258  0.45199500     0.36020
N1051       N  0.73425399  0.10644907  0.44451424    -0.44230
N1052       N  0.67362026  0.30169417  0.44994320    -0.44230
C1053       C  0.68169047  0.82748286  0.43694028    -0.00640
C1054       C  0.67311389  0.79279186  0.44153936    -0.12510
C1055       C  0.69606846  0.77016643  0.45744523     0.01600
C1056       C  0.72800958  0.78234919  0.46944416    -0.00730
C1057       C  0.73843812  0.81542736  0.46014834    -0.12450
C1058       C  0.71561542  0.83820865  0.44444493     0.01480
H1059       H  0.64761249  0.78383100  0.43474789     0.14460
H1060       H  0.76312960  0.82486159  0.46874014     0.14460
C1061       C  0.72664795  0.87331344  0.44039817     0.36110
C1062       C  0.68500401  0.73550346  0.46403739     0.36020
N1063       N  0.73553585  0.90145135  0.43739630    -0.44230
N1064       N  0.67594212  0.70773636  0.46917220    -0.44230
C1065       C  0.43340036  0.83001387  0.31576019    -0.00640
C1066       C  0.44918389  0.84274179  0.28602590    -0.12510
C1067       C  0.46623982  0.82055899  0.26347551     0.01600
C1068       C  0.46896474  0.78537415  0.27140610    -0.00730
C1069       C  0.44898847  0.77238594  0.29828343    -0.12450
C1070       C  0.43045851  0.79427056  0.31969287     0.01480
H1071       H  0.45017442  0.87010208  0.28151904     0.14460
H1072       H  0.45052285  0.74570794  0.30483122     0.14460
C1073       C  0.40834294  0.77930478  0.34512411     0.36110
C1074       C  0.48167010  0.83471449  0.23307177     0.36020
N1075       N  0.38971889  0.76674442  0.36442024    -0.44230
N1076       N  0.49320623  0.84652763  0.20844658    -0.44230
C1077       C  0.43573414  0.68526034  0.17212020    -0.00640
C1078       C  0.43157798  0.67843929  0.20712778    -0.12510
C1079       C  0.44722582  0.69916296  0.23184791     0.01600
C1080       C  0.46744673  0.72735393  0.22152594    -0.00730
C1081       C  0.46657805  0.73735858  0.18693938    -0.12450
C1082       C  0.45183825  0.71609356  0.16203063     0.01480
H1083       H  0.41811157  0.65543881  0.21512231     0.14460
H1084       H  0.48157188  0.75932553  0.17880089     0.14460
C1085       C  0.45815120  0.72406945  0.12644242     0.36110
C1086       C  0.44381828  0.68924808  0.26724858     0.36020
N1087       N  0.46364368  0.73029288  0.09797136    -0.44230
N1088       N  0.44007050  0.68066502  0.29539481    -0.44230
C1089       C  0.53100436  0.77428482  0.28203227    -0.00640
C1090       C  0.52974300  0.76536534  0.31689667    -0.12510
C1091       C  0.54493493  0.78632536  0.34175085     0.01600
C1092       C  0.56283867  0.81603858  0.33145819    -0.00730
C1093       C  0.56878487  0.82165879  0.29651191    -0.12450
C1094       C  0.55338847  0.80078843  0.27173955     0.01480
H1095       H  0.51301780  0.74466915  0.32501834     0.14460
H1096       H  0.58369799  0.84374582  0.28851906     0.14460
C1097       C  0.55943537  0.80880292  0.23621715     0.36110
C1098       C  0.53759627  0.77936811  0.37735622     0.36020
N1099       N  0.56531680  0.81598634  0.20805018    -0.44230
N1100       N  0.53147997  0.77391401  0.40585607    -0.44230
C1101       C  0.56538290  0.67278078  0.18660681    -0.00640
C1102       C  0.55350236  0.66169009  0.21873995    -0.12510
C1103       C  0.53632877  0.68439407  0.24071620     0.01600
C1104       C  0.53017466  0.71842791  0.23019853    -0.00730
C1105       C  0.54658243  0.73042582  0.20061184    -0.12450
C1106       C  0.56451530  0.70820755  0.17912771     0.01480
H1107       H  0.55531716  0.63482611  0.22565554     0.14460
H1108       H  0.54201455  0.75636885  0.19201314     0.14460
C1109       C  0.58000680  0.72229299  0.14860710     0.36110
C1110       C  0.52412630  0.67185025  0.27322090     0.36020
N1111       N  0.59247702  0.73375825  0.12427395    -0.44230
N1112       N  0.51510511  0.66149759  0.29949816    -0.44230
C1113       C  0.32322797  0.82008053  0.43825059    -0.00640
C1114       C  0.28957014  0.83020329  0.44650603    -0.12510
C1115       C  0.26745409  0.80800290  0.46405160     0.01600
C1116       C  0.27850641  0.77464820  0.47239697    -0.00730
C1117       C  0.30938619  0.76283469  0.45864221    -0.12450
C1118       C  0.33269743  0.78550572  0.44368155     0.01480
H1119       H  0.28148600  0.85641978  0.44190248     0.14460
H1120       H  0.31761153  0.73697192  0.46410923     0.14460
C1121       C  0.36761426  0.77371117  0.44024357     0.36110
C1122       C  0.23501024  0.82102833  0.47617311     0.36020
N1123       N  0.39564203  0.76404802  0.43869108    -0.44230
N1124       N  0.20908555  0.83160104  0.48596570    -0.44230
C1125       C  0.32654329  0.81795447  0.56968809    -0.00640
C1126       C  0.33940390  0.78611189  0.55945119    -0.12510
C1127       C  0.31833881  0.76257306  0.54258519     0.01600
C1128       C  0.28358676  0.77077249  0.53603014    -0.00730
C1129       C  0.26951177  0.79982573  0.55175874    -0.12450
C1130       C  0.29077734  0.82365300  0.56827506     0.01480
H1131       H  0.36668995  0.78091011  0.56149101     0.14460
H1132       H  0.24260703  0.80580262  0.54788413     0.14460
C1133       C  0.27552110  0.85427046  0.58218427     0.36110
C1134       C  0.33435686  0.73215953  0.52916579     0.36020
N1135       N  0.26312601  0.87865296  0.59352817    -0.44230
N1136       N  0.34838273  0.70838427  0.51841080    -0.44230
C1137       C  0.22133658  0.72485123  0.47346074    -0.00640
C1138       C  0.18776433  0.73656993  0.46764204    -0.12510
C1139       C  0.16355502  0.71576197  0.45116456     0.01600
C1140       C  0.17357974  0.68329539  0.43874204    -0.00730
C1141       C  0.20847822  0.67442672  0.43945823    -0.12450
C1142       C  0.23237842  0.69489442  0.45668014     0.01480
H1143       H  0.17933140  0.76013306  0.47962030     0.14460
H1144       H  0.21666121  0.65008665  0.42885207     0.14460
C1145       C  0.26727932  0.68287892  0.45910654     0.36110
C1146       C  0.12807273  0.72642597  0.45178579     0.36020
N1147       N  0.29512525  0.67265442  0.46034889    -0.44230
N1148       N  0.09964262  0.73496416  0.45260750    -0.44230
C1149       C  0.22385714  0.72310197  0.53751711    -0.00640
C1150       C  0.19211063  0.73664224  0.54790070    -0.12510
C1151       C  0.16761820  0.71587395  0.56416078     0.01600
C1152       C  0.17564511  0.68134280  0.57157435    -0.00730
C1153       C  0.20955635  0.67020262  0.56690446    -0.12450
C1154       C  0.23351514  0.69057463  0.54982400     0.01480
H1155       H  0.18482978  0.76211406  0.53952640     0.14460
H1156       H  0.21664129  0.64427696  0.57402845     0.14460
C1157       C  0.26658573  0.67579739  0.54278262     0.36110
C1158       C  0.13357981  0.72954534  0.56914429     0.36020
N1159       N  0.29267663  0.66252105  0.53811140    -0.44230
N1160       N  0.10626538  0.74049513  0.57300357    -0.44230
C1161       C  0.46981722  0.72306111  0.77702957    -0.00640
C1162       C  0.46712538  0.68873808  0.76675660    -0.12510
C1163       C  0.45160665  0.66439257  0.78782633     0.01600
C1164       C  0.43678918  0.67478134  0.81914169    -0.00730
C1165       C  0.43434102  0.70999547  0.82637493    -0.12450
C1166       C  0.45039334  0.73423122  0.80523953     0.01480
H1167       H  0.48130488  0.68007738  0.74452939     0.14460
H1168       H  0.42168292  0.71841067  0.84962404     0.14460
C1169       C  0.44795445  0.77004239  0.81384650     0.36110
C1170       C  0.45601155  0.62876396  0.77892151     0.36020
N1171       N  0.44545629  0.79876570  0.82069572    -0.44230
N1172       N  0.45992618  0.60027558  0.77176541    -0.44230
C1173       C  0.47104568  0.78393716  0.73003799    -0.00640
C1174       C  0.46827073  0.81869587  0.73871428    -0.12510
C1175       C  0.45223344  0.84201838  0.71666211     0.01600
C1176       C  0.43756358  0.83031946  0.68561904    -0.00730
C1177       C  0.43625800  0.79490744  0.67932104    -0.12450
C1178       C  0.45264634  0.77167819  0.70134940     0.01480
H1179       H  0.48219444  0.82833170  0.76079616     0.14460
H1180       H  0.42430351  0.78555063  0.65598432     0.14460
C1181       C  0.45282101  0.73589978  0.69218802     0.36110
C1182       C  0.45545762  0.87805520  0.72442625     0.36020
N1183       N  0.45268820  0.70727710  0.68451312    -0.44230
N1184       N  0.45835751  0.90691673  0.73055126    -0.44230
C1185       C  0.53356815  0.72648023  0.78242279    -0.00640
C1186       C  0.54767761  0.69663394  0.76805575    -0.12510
C1187       C  0.56444627  0.67233211  0.78880212     0.01600
C1188       C  0.56851702  0.67869446  0.82431447    -0.00730
C1189       C  0.55964845  0.71116524  0.83692793    -0.12450
C1190       C  0.54169793  0.73457192  0.81672947     0.01480
H1191       H  0.54198023  0.69038729  0.74156193     0.14460
H1192       H  0.56385244  0.71720779  0.86376046     0.14460
C1193       C  0.52865290  0.76476384  0.83347416     0.36110
C1194       C  0.57394758  0.64004135  0.77357800     0.36020
N1195       N  0.51868925  0.78853520  0.84806864    -0.44230
N1196       N  0.58146136  0.61412807  0.76133723    -0.44230
C1197       C  0.53411641  0.77611030  0.72406636    -0.00640
C1198       C  0.53651175  0.76455178  0.69006789    -0.12510
C1199       C  0.55061938  0.78542719  0.66454703     0.01600
C1200       C  0.56509658  0.81733810  0.67362238    -0.00730
C1201       C  0.56814431  0.82581135  0.70845248    -0.12450
C1202       C  0.55252186  0.80571790  0.73364487     0.01480
H1203       H  0.52280990  0.74155168  0.68255295     0.14460
H1204       H  0.58019147  0.84980849  0.71577884     0.14460
C1205       C  0.55278909  0.81839097  0.76829651     0.36110
C1206       C  0.54484439  0.77585646  0.62925409     0.36020
N1207       N  0.55380784  0.82986021  0.79560476    -0.44230
N1208       N  0.53951391  0.76829194  0.60105991    -0.44230
C1209       C  0.32898925  0.06763768  0.31674182    -0.00640
C1210       C  0.34252244  0.05048641  0.28830374    -0.12510
C1211       C  0.32094135  0.03284213  0.26571229     0.01600
C1212       C  0.28518144  0.03181135  0.27174357    -0.00730
C1213       C  0.27136598  0.05391158  0.29637559    -0.12450
C1214       C  0.29304777  0.07177835  0.31893984     0.01480
H1215       H  0.37011591  0.04830215  0.28534056     0.14460
H1216       H  0.24380497  0.05482577  0.30000170     0.14460
C1217       C  0.27781244  0.09432618  0.34374181     0.36110
C1218       C  0.33647755  0.01367914  0.23821648     0.36020
N1219       N  0.26502349  0.11312823  0.36265843    -0.44230
N1220       N  0.34922012  0.99854375  0.21616501    -0.44230
C1221       C  0.27430565  0.96963230  0.28162564    -0.00640
C1222       C  0.30059019  0.94848241  0.26944685    -0.12510
C1223       C  0.32256021  0.93182205  0.29252507     0.01600
C1224       C  0.31681357  0.93482195  0.32816997    -0.00730
C1225       C  0.28671181  0.95051537  0.33966762    -0.12450
C1226       C  0.26573846  0.96836644  0.31680751     0.01480
H1227       H  0.30651021  0.94835842  0.24232123     0.14460
H1228       H  0.28164351  0.95226353  0.36694541     0.14460
C1229       C  0.23809542  0.98851717  0.33085053     0.36110
C1230       C  0.35203892  0.91394123  0.27912715     0.36020
N1231       N  0.21605051  0.00457408  0.34246634    -0.44230
N1232       N  0.37569175  0.89975097  0.26826135    -0.44230
C1233       C  0.32261076  0.32151752  0.06939261    -0.00640
C1234       C  0.28799447  0.33134987  0.07128973    -0.12510
C1235       C  0.26220772  0.31149587  0.05603163     0.01600
C1236       C  0.27110405  0.28185214  0.03757309    -0.00730
C1237       C  0.30464276  0.26897541  0.04117104    -0.12450
C1238       C  0.33056531  0.28868172  0.05654775     0.01480
H1239       H  0.28130309  0.35569957  0.08286787     0.14460
H1240       H  0.31158271  0.24551750  0.02803626     0.14460
C1241       C  0.36545996  0.27637296  0.05490184     0.36110
C1242       C  0.22724691  0.32311525  0.05847680     0.36020
N1243       N  0.39343029  0.26651134  0.05354069    -0.44230
N1244       N  0.19949479  0.33313010  0.06159290    -0.44230
C1245       C  0.31661990  0.32827913  0.93806148    -0.00640
C1246       C  0.28483008  0.34222489  0.94737261    -0.12510
C1247       C  0.26085147  0.32282083  0.96557169     0.01600
C1248       C  0.26808515  0.28842232  0.97401916    -0.00730
C1249       C  0.29746296  0.27303963  0.96005401    -0.12450
C1250       C  0.32197832  0.29272663  0.94257645     0.01480
H1251       H  0.27991586  0.36927725  0.94336254     0.14460
H1252       H  0.30296756  0.24643372  0.96587000     0.14460
C1253       C  0.35306002  0.27618171  0.93121156     0.36110
C1254       C  0.23052181  0.34001366  0.97773274     0.36020
N1255       N  0.37798235  0.26292584  0.92212527    -0.44230
N1256       N  0.20640798  0.35465703  0.98684206    -0.44230
C1257       C  0.31560515  0.43948138  0.17361885    -0.00640
C1258       C  0.32460462  0.44350158  0.20828022    -0.12510
C1259       C  0.30223210  0.45939995  0.23128637     0.01600
C1260       C  0.27023291  0.47178379  0.21968373    -0.00730
C1261       C  0.25888499  0.46219523  0.18693711    -0.12450
C1262       C  0.28144986  0.44699765  0.16349366     0.01480
H1263       H  0.35010188  0.43638963  0.21695589     0.14460
H1264       H  0.23369178  0.47018383  0.17833271     0.14460
C1265       C  0.26988325  0.44329791  0.12848735     0.36110
C1266       C  0.31403249  0.46550862  0.26584080     0.36020
N1267       N  0.26061522  0.44062521  0.10040108    -0.44230
N1268       N  0.32366102  0.47023480  0.29353042    -0.44230
C1269       C  0.21204364  0.47347328  0.26889111    -0.00640
C1270       C  0.22650221  0.45473712  0.29596681    -0.12510
C1271       C  0.20567190  0.43636560  0.31867336     0.01600
C1272       C  0.16961360  0.43728246  0.31490489    -0.00730
C1273       C  0.15582231  0.45138746  0.28472611    -0.12450
C1274       C  0.17685797  0.46900895  0.26154508     0.01480
H1275       H  0.25365342  0.45708863  0.30142065     0.14460
H1276       H  0.12830254  0.45088577  0.28039477     0.14460
C1277       C  0.16147365  0.48363082  0.23125165     0.36110
C1278       C  0.22200356  0.41725966  0.34575059     0.36020
N1279       N  0.14880413  0.49466337  0.20676923    -0.44230
N1280       N  0.23559068  0.40144432  0.36683605    -0.44230
C1281       C  0.27381933  0.53548945  0.22125592    -0.00640
C1282       C  0.30584093  0.54428936  0.23548153    -0.12510
C1283       C  0.33141911  0.55968721  0.21530370     0.01600
C1284       C  0.32415255  0.56827183  0.18081640    -0.00730
C1285       C  0.29032552  0.56476683  0.16885264    -0.12450
C1286       C  0.26555461  0.54776514  0.18819676     0.01480
H1287       H  0.31230762  0.53541402  0.26100593     0.14460
H1288       H  0.28403188  0.57218689  0.14277096     0.14460
C1289       C  0.23390400  0.53885751  0.17107889     0.36110
C1290       C  0.36562813  0.56242694  0.22938220     0.36020
N1291       N  0.20915037  0.53153164  0.15631024    -0.44230
N1292       N  0.39309882  0.56434959  0.24061308    -0.44230
C1293       C  0.22216946  0.53583540  0.27841782    -0.00640
C1294       C  0.23354581  0.53495954  0.31270406    -0.12510
C1295       C  0.21403465  0.54974763  0.33897720     0.01600
C1296       C  0.18322415  0.56684478  0.33073496    -0.00730
C1297       C  0.17518862  0.57261897  0.29620198    -0.12450
C1298       C  0.19444965  0.55756578  0.27006672     0.01480
H1299       H  0.25523774  0.51890631  0.31948045     0.14460
H1300       H  0.15228674  0.58704870  0.28965755     0.14460
C1301       C  0.18345304  0.56367972  0.23538750     0.36110
C1302       C  0.22378327  0.54306816  0.37407869     0.36020
N1303       N  0.17316811  0.57031617  0.20835373    -0.44230
N1304       N  0.23149618  0.53756935  0.40221539    -0.44230
C1305       C  0.27313854  0.22169226  0.47052940    -0.00640
C1306       C  0.26102834  0.19138069  0.45581460    -0.12510
C1307       C  0.28403461  0.16755585  0.44225337     0.01600
C1308       C  0.31909281  0.17647454  0.43835861    -0.00730
C1309       C  0.32944609  0.20999304  0.44672159    -0.12450
C1310       C  0.30697299  0.23232680  0.46341459     0.01480
H1311       H  0.23457936  0.18397407  0.45984096     0.14460
H1312       H  0.35595181  0.21774177  0.44308725     0.14460
C1313       C  0.32018426  0.26443004  0.47628708     0.36110
C1314       C  0.27186789  0.13280043  0.43881191     0.36020
N1315       N  0.33087635  0.29008125  0.48668694    -0.44230
N1316       N  0.26195203  0.10488667  0.43725576    -0.44230
C1317       C  0.22157721  0.27674243  0.47192950    -0.00640
C1318       C  0.23503793  0.30831788  0.46124131    -0.12510
C1319       C  0.21415832  0.33249896  0.44479084     0.01600
C1320       C  0.17991894  0.32388442  0.43600309    -0.00730
C1321       C  0.16867926  0.29007920  0.44167868    -0.12450
C1322       C  0.18891270  0.26678946  0.46000465     0.01480
H1323       H  0.26045193  0.31585405  0.46973460     0.14460
H1324       H  0.14282032  0.28265081  0.43439598     0.14460
C1325       C  0.17422577  0.23407669  0.46905572     0.36110
C1326       C  0.22705126  0.36708003  0.44249330     0.36020
N1327       N  0.16211404  0.20794162  0.47611579    -0.44230
N1328       N  0.23756236  0.39480297  0.44168896    -0.44230
C1329       C  0.31604761  0.17283323  0.56896221    -0.00640
C1330       C  0.28521662  0.15933634  0.55631574    -0.12510
C1331       C  0.26179983  0.18018254  0.53906362     0.01600
C1332       C  0.26928567  0.21529495  0.53399652    -0.00730
C1333       C  0.29723616  0.22968757  0.55159728    -0.12450
C1334       C  0.32057477  0.20870027  0.56917047     0.01480
H1335       H  0.28070205  0.13191817  0.55719448     0.14460
H1336       H  0.30256855  0.25683476  0.54901731     0.14460
C1337       C  0.34875909  0.22454744  0.58711569     0.36110
C1338       C  0.23191620  0.16392503  0.52439802     0.36020
N1339       N  0.37066892  0.23781466  0.60213208    -0.44230
N1340       N  0.20823004  0.15012250  0.51288690    -0.44230
C1341       C  0.22531616  0.27821519  0.53598160    -0.00640
C1342       C  0.23687374  0.31204394  0.54027996    -0.12510
C1343       C  0.21513612  0.33709751  0.55375836     0.01600
C1344       C  0.18244271  0.32751205  0.56609896    -0.00730
C1345       C  0.17405176  0.29263748  0.56804345    -0.12450
C1346       C  0.19527443  0.26794355  0.55320817     0.01480
H1347       H  0.26078654  0.31991683  0.52848632     0.14460
H1348       H  0.14973367  0.28486952  0.57911855     0.14460
C1349       C  0.18440871  0.23274061  0.55463786     0.36110
C1350       C  0.22500581  0.37256159  0.54975572     0.36020
N1351       N  0.17472456  0.20484572  0.55718909    -0.44230
N1352       N  0.23269619  0.40096641  0.54605494    -0.44230
C1353       C  0.43560988  0.33272318  0.18632418    -0.00640
C1354       C  0.42724111  0.29806467  0.18333870    -0.12510
C1355       C  0.44193384  0.27365366  0.20520024     0.01600
C1356       C  0.46636675  0.28382304  0.23017266    -0.00730
C1357       C  0.47001223  0.31916040  0.23656942    -0.12450
C1358       C  0.45594247  0.34355108  0.21425270     0.01480
H1359       H  0.41030187  0.28985481  0.16278225     0.14460
H1360       H  0.48790326  0.32766374  0.25614914     0.14460
C1361       C  0.46687161  0.37876223  0.21769163     0.36110
C1362       C  0.43101107  0.23883847  0.20042831     0.36020
N1363       N  0.47602172  0.40687272  0.22012910    -0.44230
N1364       N  0.41945282  0.21208972  0.19495478    -0.44230
C1365       C  0.46767646  0.22380994  0.27969592    -0.00640
C1366       C  0.45906199  0.23753127  0.31181372    -0.12510
C1367       C  0.44373976  0.21695331  0.33703138     0.01600
C1368       C  0.43495874  0.18267893  0.32919330    -0.00730
C1369       C  0.43832571  0.17124745  0.29532050    -0.12450
C1370       C  0.45559590  0.19078127  0.27104304     0.01480
H1371       H  0.46816774  0.26287579  0.31864397     0.14460
H1372       H  0.43071973  0.14533650  0.28863227     0.14460
C1373       C  0.46453506  0.17399216  0.23934555     0.36110
C1374       C  0.44137837  0.23035298  0.37142339     0.36020
N1375       N  0.47147521  0.15982995  0.21424445    -0.44230
N1376       N  0.43979502  0.24103763  0.39903957    -0.44230
C1377       C  0.52868922  0.27359596  0.21942325    -0.00640
C1378       C  0.54883551  0.30006014  0.23332533    -0.12510
C1379       C  0.56593027  0.32332781  0.21191310     0.01600
C1380       C  0.56287218  0.31994814  0.17594729    -0.00730
C1381       C  0.54782114  0.28986884  0.16273094    -0.12450
C1382       C  0.53080088  0.26683798  0.18411895     0.01480
H1383       H  0.54783935  0.30513521  0.26056430     0.14460
H1384       H  0.54683905  0.28554127  0.13527464     0.14460
C1385       C  0.51261686  0.23843175  0.16880155     0.36110
C1386       C  0.58412459  0.35150031  0.22759982     0.36020
N1387       N  0.49814449  0.21574617  0.15626484    -0.44230
N1388       N  0.59887177  0.37396720  0.24022261    -0.44230
C1389       C  0.56490701  0.17488270  0.31878181    -0.00640
C1390       C  0.56216642  0.20957918  0.32803427    -0.12510
C1391       C  0.54522686  0.23303747  0.30675140     0.01600
C1392       C  0.53144705  0.22216351  0.27508765    -0.00730
C1393       C  0.54019439  0.18948668  0.26313128    -0.12450
C1394       C  0.55497714  0.16520272  0.28517691     0.01480
H1395       H  0.57070303  0.21786703  0.35319155     0.14460
H1396       H  0.53144892  0.18151386  0.23803827     0.14460
C1397       C  0.55454643  0.12990470  0.27419464     0.36110
C1398       C  0.53945515  0.26723152  0.31947306     0.36020
N1399       N  0.55332342  0.10162667  0.26538608    -0.44230
N1400       N  0.53496205  0.29462075  0.32984316    -0.44230
C1401       C  0.02888957  0.21895134  0.22751062    -0.00640
C1402       C  0.02763498  0.18398299  0.23593545    -0.12510
C1403       C  0.04298979  0.15944163  0.21493156     0.01600
C1404       C  0.06123087  0.17003672  0.18555443    -0.00730
C1405       C  0.06710167  0.20521209  0.18040217    -0.12450
C1406       C  0.05153262  0.22970003  0.20156451     0.01480
H1407       H  0.01096694  0.17550731  0.25649328     0.14460
H1408       H  0.08232118  0.21359279  0.15871063     0.14460
C1409       C  0.05806673  0.26549399  0.19529055     0.36110
C1410       C  0.03540351  0.12380948  0.22150904     0.36020
N1411       N  0.06391156  0.29412295  0.19024678    -0.44230
N1412       N  0.02902279  0.09530554  0.22662269    -0.44230
C1413       C  0.22377521  0.03259242  0.22496399    -0.00640
C1414       C  0.18965466  0.03642755  0.23533626    -0.12510
C1415       C  0.16525903  0.05083234  0.21341640     0.01600
C1416       C  0.17546483  0.06350974  0.18084908    -0.00730
C1417       C  0.21075182  0.06521820  0.17345658    -0.12450
C1418       C  0.23490829  0.04976605  0.19522498     0.01480
H1419       H  0.18114595  0.02401310  0.25872009     0.14460
H1420       H  0.21932711  0.07611359  0.14938610     0.14460
C1421       C  0.27044801  0.04963568  0.18509950     0.36110
C1422       C  0.12979282  0.04897634  0.22410337     0.36020
N1423       N  0.29885132  0.05017688  0.17653164    -0.44230
N1424       N  0.10143050  0.04689931  0.23264876    -0.44230
C1425       C  0.17162327  0.18267166  0.06834420    -0.00640
C1426       C  0.15771958  0.21467473  0.05958453    -0.12510
C1427       C  0.17740051  0.23928322  0.04250752     0.01600
C1428       C  0.21210124  0.23262552  0.03475866    -0.00730
C1429       C  0.22738094  0.20294937  0.04834649    -0.12450
C1430       C  0.20736877  0.17764280  0.06436918     0.01480
H1431       H  0.13053613  0.21941021  0.06316926     0.14460
H1432       H  0.25420203  0.19780109  0.04305520     0.14460
C1433       C  0.22383340  0.14615594  0.07468781     0.36110
C1434       C  0.16025764  0.26971897  0.03046886     0.36020
N1435       N  0.23701279  0.12087660  0.08286384    -0.44230
N1436       N  0.14579075  0.29391329  0.02126139    -0.44230
C1437       C  0.21882988  0.23028962  0.97125842    -0.00640
C1438       C  0.23140573  0.19680279  0.96835300    -0.12510
C1439       C  0.21139074  0.17093949  0.95363247     0.01600
C1440       C  0.17916837  0.17915944  0.93872675    -0.00730
C1441       C  0.17033062  0.21392972  0.93551321    -0.12450
C1442       C  0.18975728  0.23943344  0.95178098     0.01480
H1443       H  0.25463836  0.18982506  0.98206250     0.14460
H1444       H  0.14673853  0.22112046  0.92262306     0.14460
C1445       C  0.17820687  0.27432466  0.94911897     0.36110
C1446       C  0.22314734  0.13617161  0.95812227     0.36020
N1447       N  0.16804774  0.30194651  0.94573777    -0.44230
N1448       N  0.23260241  0.10846071  0.96270779    -0.44230
C1449       C  0.96624374  0.22856384  0.21880730    -0.00640
C1450       C  0.94752271  0.20108548  0.23253091    -0.12510
C1451       C  0.92993531  0.17834062  0.21086827     0.01600
C1452       C  0.92982141  0.18395889  0.17503007    -0.00730
C1453       C  0.94349008  0.21458319  0.16231066    -0.12450
C1454       C  0.96212539  0.23651441  0.18366981     0.01480
H1455       H  0.95018754  0.19496685  0.25953297     0.14460
H1456       H  0.94296239  0.21959148  0.13495499     0.14460
C1457       C  0.97964699  0.26493430  0.16781744     0.36110
C1458       C  0.91431320  0.14833485  0.22583044     0.36020
N1459       N  0.99310288  0.28761441  0.15423848    -0.44230
N1460       N  0.90193456  0.12428739  0.23799208    -0.44230
C1461       C  0.22788110  0.96917919  0.21987001    -0.00640
C1462       C  0.23710150  0.96548481  0.18532161    -0.12510
C1463       C  0.21490339  0.94987134  0.16176838     0.01600
C1464       C  0.18356712  0.93557074  0.17318082    -0.00730
C1465       C  0.17682459  0.93488920  0.20850265    -0.12450
C1466       C  0.19854745  0.95160753  0.23183761     0.01480
H1467       H  0.25960058  0.97882724  0.17585388     0.14460
H1468       H  0.15324715  0.92328285  0.21767197     0.14460
C1469       C  0.18834395  0.95240975  0.26727436     0.36110
C1470       C  0.22272214  0.95365403  0.12579457     0.36020
N1471       N  0.17905522  0.95205396  0.29540625    -0.44230
N1472       N  0.22888280  0.95732254  0.09702214    -0.44230
C1473       C  0.02842139  0.76839037  0.78758946    -0.00640
C1474       C  0.04035231  0.79926360  0.77381472    -0.12510
C1475       C  0.05797188  0.82296314  0.79393257     0.01600
C1476       C  0.06342676  0.81628275  0.82911060    -0.00730
C1477       C  0.05644150  0.78306749  0.84143380    -0.12450
C1478       C  0.03945886  0.75896421  0.82066973     0.01480
H1479       H  0.03235081  0.80685955  0.74836396     0.14460
H1480       H  0.06214935  0.77657424  0.86788985     0.14460
C1481       C  0.03289304  0.72515911  0.83397962     0.36110
C1482       C  0.06816974  0.85457270  0.77786772     0.36020
N1483       N  0.02838031  0.69784480  0.84459586    -0.44230
N1484       N  0.07613893  0.87961488  0.76423573    -0.44230
C1485       C  0.96484982  0.77368804  0.78295022    -0.00640
C1486       C  0.96040454  0.80652610  0.76864637    -0.12510
C1487       C  0.94617231  0.83329212  0.78801664     0.01600
C1488       C  0.93305472  0.82639243  0.82102525    -0.00730
C1489       C  0.93173701  0.79233161  0.83225938    -0.12450
C1490       C  0.94831446  0.76631698  0.81427866     0.01480
H1491       H  0.97258361  0.81250526  0.74440080     0.14460
H1492       H  0.92075992  0.78653318  0.85715529     0.14460
C1493       C  0.95104984  0.73375920  0.83134561     0.36110
C1494       C  0.95024322  0.86785757  0.77554950     0.36020
N1495       N  0.95223047  0.70870451  0.84713861    -0.44230
N1496       N  0.95414889  0.89551929  0.76560759    -0.44230
C1497       C  0.02815636  0.71396440  0.73398047    -0.00640
C1498       C  0.03065689  0.67900557  0.74200558    -0.12510
C1499       C  0.04564369  0.65588017  0.71908423     0.01600
C1500       C  0.06130667  0.66817187  0.68881911    -0.00730
C1501       C  0.06348629  0.70362659  0.68358725    -0.12450
C1502       C  0.04681819  0.72651551  0.70555636     0.01480
H1503       H  0.01682512  0.66908332  0.76392007     0.14460
H1504       H  0.07599158  0.71335486  0.66073909     0.14460
C1505       C  0.04647579  0.76214325  0.69588280     0.36110
C1506       C  0.03962379  0.61979164  0.72469095     0.36020
N1507       N  0.04678993  0.79041867  0.68697635    -0.44230
N1508       N  0.03410548  0.59096194  0.72890709    -0.44230
C1509       C  0.96524513  0.72213668  0.72605021    -0.00640
C1510       C  0.96304078  0.73483240  0.69234541    -0.12510
C1511       C  0.94872178  0.71490892  0.66598319     0.01600
C1512       C  0.93431067  0.68268576  0.67387472    -0.00730
C1513       C  0.93102885  0.67314572  0.70832010    -0.12450
C1514       C  0.94689356  0.69201228  0.73427102     0.01480
H1515       H  0.97666727  0.75812594  0.68573860     0.14460
H1516       H  0.91913689  0.64879328  0.71467022     0.14460
C1517       C  0.94840015  0.67625023  0.76759968     0.36110
C1518       C  0.95349428  0.72595343  0.63099012     0.36020
N1519       N  0.94931740  0.66145206  0.79326692    -0.44230
N1520       N  0.95762410  0.73464825  0.60293470    -0.44230
C1521       C  0.83007461  0.06640280  0.81652722    -0.00640
C1522       C  0.79474685  0.07139458  0.82169694    -0.12510
C1523       C  0.77037513  0.05452470  0.80122240     0.01600
C1524       C  0.78137058  0.03192532  0.77530779    -0.00730
C1525       C  0.81644053  0.03124727  0.76692898    -0.12450
C1526       C  0.84087815  0.04750945  0.78766390     0.01480
H1527       H  0.78617893  0.08671794  0.84320949     0.14460
H1528       H  0.82516770  0.01446111  0.74661087     0.14460
C1529       C  0.87667612  0.04009607  0.78157291     0.36110
C1530       C  0.73452637  0.05939430  0.80878833     0.36020
N1531       N  0.90531063  0.03378462  0.77692006    -0.44230
N1532       N  0.70592966  0.06413763  0.81516909    -0.44230
C1533       C  0.81612906  0.93466530  0.82864738    -0.00640
C1534       C  0.78452785  0.94705009  0.84050779    -0.12510
C1535       C  0.76221408  0.96410619  0.81819141     0.01600
C1536       C  0.77183004  0.96923234  0.78377942    -0.00730
C1537       C  0.80016192  0.95148586  0.77083509    -0.12450
C1538       C  0.82238639  0.93419563  0.79300067     0.01480
H1539       H  0.77862942  0.94627508  0.86765504     0.14460
H1540       H  0.80715435  0.95440861  0.74414928     0.14460
C1541       C  0.85223030  0.91783229  0.77865271     0.36110
C1542       C  0.73095985  0.97843666  0.83173653     0.36020
N1543       N  0.87590929  0.90456435  0.76679463    -0.44230
N1544       N  0.70575730  0.98941413  0.84284530    -0.44230
C1545       C  0.72041656  0.03225132  0.72777638    -0.00640
C1546       C  0.68661232  0.03820332  0.73834349    -0.12510
C1547       C  0.66256922  0.05231685  0.71594241     0.01600
C1548       C  0.67318292  0.06403795  0.68337202    -0.00730
C1549       C  0.70838551  0.06342168  0.67529594    -0.12450
C1550       C  0.73200763  0.04737465  0.69717675     0.01480
H1551       H  0.67768301  0.02694890  0.76211245     0.14460
H1552       H  0.71707340  0.07323962  0.65077896     0.14460
C1553       C  0.76740858  0.04487739  0.68676844     0.36110
C1554       C  0.62684526  0.04841091  0.72491657     0.36020
N1555       N  0.79583697  0.04334171  0.67837012    -0.44230
N1556       N  0.59838446  0.04403923  0.73213971    -0.44230
C1557       C  0.72094536  0.96830229  0.72779908    -0.00640
C1558       C  0.68835947  0.95875497  0.73981798    -0.12510
C1559       C  0.66468515  0.94244717  0.71809403     0.01600
C1560       C  0.67426576  0.93419381  0.68408968    -0.00730
C1561       C  0.70880738  0.93832353  0.67457530    -0.12450
C1562       C  0.73210670  0.95513899  0.69612883     0.01480
H1563       H  0.67999126  0.96764365  0.76474629     0.14460
H1564       H  0.71711426  0.93056982  0.64922102     0.14460
C1565       C  0.76663853  0.96063518  0.68404772     0.36110
C1566       C  0.62995673  0.93824511  0.73025128     0.36020
N1567       N  0.79436786  0.96438295  0.67413732    -0.44230
N1568       N  0.60210533  0.93506898  0.74002789    -0.44230
C1569       C  0.77341806  0.78151059  0.03587202    -0.00640
C1570       C  0.80201830  0.76692862  0.05227872    -0.12510
C1571       C  0.82629253  0.78773840  0.06895237     0.01600
C1572       C  0.82125009  0.82358743  0.06986919    -0.00730
C1573       C  0.78922006  0.83664143  0.05950515    -0.12450
C1574       C  0.76558162  0.81611340  0.04224288     0.01480
H1575       H  0.80738866  0.73994151  0.04875265     0.14460
H1576       H  0.78382731  0.86380054  0.06184877     0.14460
C1577       C  0.73582631  0.83251442  0.02748890     0.36110
C1578       C  0.85702130  0.77192452  0.08227563     0.36020
N1579       N  0.71252756  0.84656502  0.01558605    -0.44230
N1580       N  0.88158611  0.75918201  0.09307894    -0.44230
C1581       C  0.77904286  0.77694828  0.97231466    -0.00640
C1582       C  0.76664382  0.80615032  0.95547384    -0.12510
C1583       C  0.78903355  0.82823071  0.93816323     0.01600
C1584       C  0.82456476  0.82094656  0.93733781    -0.00730
C1585       C  0.83586327  0.78890433  0.94919687    -0.12450
C1586       C  0.81331356  0.76683239  0.96644644     0.01480
H1587       H  0.74015606  0.81366100  0.95876956     0.14460
H1588       H  0.86285194  0.78228352  0.94758940     0.14460
C1589       C  0.82647017  0.73506872  0.98004908     0.36110
C1590       C  0.77510105  0.85896756  0.92296583     0.36020
N1591       N  0.83708362  0.70956335  0.99083411    -0.44230
N1592       N  0.76384890  0.88352337  0.91071597    -0.44230
C1593       C  0.71821321  0.72871279  0.03491617    -0.00640
C1594       C  0.73186595  0.69749624  0.04654626    -0.12510
C1595       C  0.71101843  0.67327363  0.06305015     0.01600
C1596       C  0.67592787  0.68056203  0.06885637    -0.00730
C1597       C  0.66404632  0.71383476  0.06220588    -0.12450
C1598       C  0.68480306  0.73781343  0.04537795     0.01480
H1599       H  0.75781966  0.69049452  0.03940507     0.14460
H1600       H  0.63756347  0.72036871  0.06759586     0.14460
C1601       C  0.67018737  0.77077497  0.03762584     0.36110
C1602       C  0.72590098  0.64062628  0.07208663     0.36020
N1603       N  0.65736284  0.79696859  0.03237561    -0.44230
N1604       N  0.73783500  0.61446442  0.07932738    -0.44230
C1605       C  0.67838984  0.67866257  0.93957731    -0.00640
C1606       C  0.66951440  0.71352529  0.93969077    -0.12510
C1607       C  0.69105290  0.73773324  0.95516467     0.01600
C1608       C  0.72163230  0.72697237  0.97118002    -0.00730
C1609       C  0.73343476  0.69364937  0.96518899    -0.12450
C1610       C  0.71207437  0.66929999  0.94979740     0.01480
H1611       H  0.64466513  0.72161850  0.93009238     0.14460
H1612       H  0.75769201  0.68557021  0.97625497     0.14460
C1613       C  0.72475670  0.63463983  0.94715561     0.36110
C1614       C  0.68024206  0.77300301  0.95590309     0.36020
N1615       N  0.73496656  0.60688573  0.94519346    -0.44230
N1616       N  0.67130103  0.80125396  0.95569379    -0.44230
C1617       C  0.21280440  0.76696109  0.03087978    -0.00640
C1618       C  0.22771051  0.79755186  0.04269643    -0.12510
C1619       C  0.20775832  0.82255450  0.05897356     0.01600
C1620       C  0.17241262  0.81645315  0.06473474    -0.00730
C1621       C  0.15943332  0.78349450  0.05851780    -0.12450
C1622       C  0.17918366  0.75890204  0.04159789     0.01480
H1623       H  0.25395003  0.80359934  0.03567022     0.14460
H1624       H  0.13280257  0.77771255  0.06419268     0.14460
C1625       C  0.16304702  0.72666467  0.03376979     0.36110
C1626       C  0.22386843  0.85474228  0.06758467     0.36020
N1627       N  0.14862524  0.70128295  0.02850796    -0.44230
N1628       N  0.23695144  0.88049024  0.07437641    -0.44230
C1629       C  0.17883981  0.82377345  0.93526013    -0.00640
C1630       C  0.16702406  0.78985207  0.93465481    -0.12510
C1631       C  0.18534439  0.76369963  0.95076107     0.01600
C1632       C  0.21674882  0.77109446  0.96724400    -0.00730
C1633       C  0.23144573  0.80371279  0.96228909    -0.12450
C1634       C  0.21246707  0.83034106  0.94717747     0.01480
H1635       H  0.14181278  0.78421728  0.92414166     0.14460
H1636       H  0.25593898  0.80958302  0.97420670     0.14460
C1637       C  0.22644636  0.86459072  0.94812217     0.36110
C1638       C  0.16910110  0.73063994  0.95250330     0.36020
N1639       N  0.23758740  0.89207294  0.94901896    -0.44230
N1640       N  0.15427102  0.70496006  0.95280483    -0.44230
C1641       C  0.26788673  0.71454689  0.03116526    -0.00640
C1642       C  0.29877369  0.72960201  0.04225543    -0.12510
C1643       C  0.32410207  0.70992809  0.05854911     0.01600
C1644       C  0.31800162  0.67481252  0.06500194    -0.00730
C1645       C  0.28480731  0.66183833  0.05965642    -0.12450
C1646       C  0.25988080  0.68127595  0.04275014     0.01480
H1647       H  0.30472513  0.75566398  0.03466631     0.14460
H1648       H  0.27906956  0.63537160  0.06593531     0.14460
C1649       C  0.22741933  0.66508608  0.03568754     0.36110
C1650       C  0.35655550  0.72597175  0.06658891     0.36020
N1651       N  0.20190259  0.65059824  0.03107521    -0.44230
N1652       N  0.38254787  0.73887893  0.07302384    -0.44230
C1653       C  0.27146889  0.71764766  0.96739081    -0.00640
C1654       C  0.30396560  0.73253878  0.96186086    -0.12510
C1655       C  0.33052825  0.71383912  0.94631576     0.01600
C1656       C  0.32404168  0.68022990  0.93457982    -0.00730
C1657       C  0.29008942  0.66819058  0.93463555    -0.12450
C1658       C  0.26405699  0.68618675  0.95123430     0.01480
H1659       H  0.30984757  0.75708220  0.97348936     0.14460
H1660       H  0.28440005  0.64298603  0.92433130     0.14460
C1661       C  0.23124800  0.66945552  0.95402187     0.36110
C1662       C  0.36469715  0.72818730  0.94645646     0.36020
N1663       N  0.20577802  0.65424963  0.95526496    -0.44230
N1664       N  0.39211392  0.73965434  0.94669162    -0.44230
C1665       C  0.76910289  0.21724253  0.03163544    -0.00640
C1666       C  0.76076632  0.18219960  0.03155265    -0.12510
C1667       C  0.78284354  0.15807787  0.04639254     0.01600
C1668       C  0.81254910  0.16928538  0.06396373    -0.00730
C1669       C  0.81759470  0.20442167  0.06897799    -0.12450
C1670       C  0.79626398  0.22844243  0.05302936     0.01480
H1671       H  0.73968740  0.17325957  0.01567620     0.14460
H1672       H  0.83978765  0.21316271  0.08342040     0.14460
C1673       C  0.80494587  0.26404114  0.05737089     0.36110
C1674       C  0.77716525  0.12235261  0.03857571     0.36020
N1675       N  0.81306595  0.29217585  0.06210767    -0.44230
N1676       N  0.77286818  0.09381249  0.03178828    -0.44230
C1677       C  0.77813991  0.22537262  0.96893774    -0.00640
C1678       C  0.76545346  0.19639810  0.95179158    -0.12510
C1679       C  0.78748982  0.17405713  0.93451615     0.01600
C1680       C  0.82326477  0.18026670  0.93506369    -0.00730
C1681       C  0.83501531  0.21203772  0.94758073    -0.12450
C1682       C  0.81270009  0.23467125  0.96409206     0.01480
H1683       H  0.73901973  0.18880827  0.95545522     0.14460
H1684       H  0.86212897  0.21836723  0.94648168     0.14460
C1685       C  0.82635188  0.26625757  0.97761800     0.36110
C1686       C  0.77273858  0.14382672  0.91906185     0.36020
N1687       N  0.83770874  0.29168758  0.98785059    -0.44230
N1688       N  0.76074996  0.11975366  0.90650997    -0.44230
C1689       C  0.71318638  0.26972288  0.02957362    -0.00640
C1690       C  0.72611029  0.29803563  0.04739758    -0.12510
C1691       C  0.70448013  0.31967879  0.06570755     0.01600
C1692       C  0.66867965  0.31454711  0.06445933    -0.00730
C1693       C  0.65615289  0.28366788  0.05076004    -0.12450
C1694       C  0.67833159  0.26090752  0.03398180     0.01480
H1695       H  0.75261148  0.30563797  0.04396087     0.14460
H1696       H  0.62877922  0.27834201  0.05106203     0.14460
C1697       C  0.66450481  0.22949044  0.02032195     0.36110
C1698       C  0.71979428  0.34711781  0.08508460     0.36020
N1699       N  0.65308828  0.20406267  0.01015617    -0.44230
N1700       N  0.73276069  0.36829978  0.10125622    -0.44230
C1701       C  0.68460271  0.32930558  0.93392861    -0.00640
C1702       C  0.67744771  0.29444834  0.92900827    -0.12510
C1703       C  0.69696852  0.26926256  0.94542891     0.01600
C1704       C  0.72412600  0.27897566  0.96738120    -0.00730
C1705       C  0.73475126  0.31341532  0.96745332    -0.12450
C1706       C  0.71485428  0.33875434  0.95155651     0.01480
H1707       H  0.65490722  0.28696103  0.91440226     0.14460
H1708       H  0.75606342  0.32109442  0.98368528     0.14460
C1709       C  0.72340340  0.37419161  0.95793187     0.36110
C1710       C  0.68672408  0.23406787  0.94104057     0.36020
N1711       N  0.73010265  0.40258192  0.96327895    -0.44230
N1712       N  0.67778388  0.20615388  0.93648753    -0.44230
C1713       C  0.82120439  0.06392852  0.18073480    -0.00640
C1714       C  0.83028968  0.06330160  0.21565275    -0.12510
C1715       C  0.80868874  0.04794622  0.23997276     0.01600
C1716       C  0.77810490  0.03186960  0.22924506    -0.00730
C1717       C  0.76621164  0.03833025  0.19589564    -0.12450
C1718       C  0.78742448  0.05389798  0.17153183     0.01480
H1719       H  0.85515007  0.07281218  0.22376056     0.14460
H1720       H  0.74182430  0.02757366  0.18775881     0.14460
C1721       C  0.77434548  0.05722840  0.13700909     0.36110
C1722       C  0.81883256  0.04849814  0.27548320     0.36020
N1723       N  0.76376289  0.05978851  0.10937902    -0.44230
N1724       N  0.82733180  0.04998485  0.30388320    -0.44230
C1725       C  0.78037162  0.96814586  0.22822383    -0.00640
C1726       C  0.76549094  0.95746813  0.19712144    -0.12510
C1727       C  0.78562914  0.94214437  0.17154521     0.01600
C1728       C  0.82091553  0.93621806  0.17780098    -0.00730
C1729       C  0.83377022  0.94148886  0.21103574    -0.12450
C1730       C  0.81427127  0.95803724  0.23580996     0.01480
H1731       H  0.73931980  0.96490808  0.19121101     0.14460
H1732       H  0.86038458  0.93563156  0.21685544     0.14460
C1733       C  0.83144801  0.96784450  0.26711149     0.36110
C1734       C  0.77024075  0.93609490  0.13839604     0.36020
N1735       N  0.84606865  0.97508620  0.29194062    -0.44230
N1736       N  0.75790493  0.93129024  0.11180281    -0.44230
C1737       C  0.73054660  0.02860770  0.28887853    -0.00640
C1738       C  0.70415652  0.04823954  0.27424101    -0.12510
C1739       C  0.68077947  0.06570406  0.29513101     0.01600
C1740       C  0.68426587  0.06414592  0.33114742    -0.00730
C1741       C  0.71388030  0.04921270  0.34515538    -0.12450
C1742       C  0.73682470  0.03132167  0.32439012     0.01480
H1743       H  0.69957335  0.04684435  0.24683913     0.14460
H1744       H  0.71751319  0.04868487  0.37273004     0.14460
C1745       C  0.76483410  0.01343019  0.34069498     0.36110
C1746       C  0.65291505  0.08391701  0.27902199     0.36020
N1747       N  0.78727530  0.99950278  0.35427902    -0.44230
N1748       N  0.63089659  0.09875415  0.26577169    -0.44230
C1749       C  0.72106396  0.96650356  0.27735977    -0.00640
C1750       C  0.68617374  0.96880053  0.26805802    -0.12510
C1751       C  0.66058541  0.95391625  0.28839333     0.01600
C1752       C  0.67004087  0.93481577  0.31759312    -0.00730
C1753       C  0.70481938  0.92763705  0.32328820    -0.12450
C1754       C  0.73032541  0.94288347  0.30316261     0.01480
H1755       H  0.67862612  0.98615478  0.24767565     0.14460
H1756       H  0.71216330  0.91172256  0.34490646     0.14460
C1757       C  0.76545668  0.93463899  0.31096222     0.36110
C1758       C  0.62521793  0.96278433  0.28159957     0.36020
N1759       N  0.79296602  0.92624832  0.31834744    -0.44230
N1760       N  0.59690439  0.97014491  0.27639629    -0.44230
C1761       C  0.03360717  0.77583118  0.22633322    -0.00640
C1762       C  0.04240039  0.76431761  0.19355891    -0.12510
C1763       C  0.05708864  0.78667836  0.16962221     0.01600
C1764       C  0.06561983  0.82071411  0.17936787    -0.00730
C1765       C  0.06315340  0.82956065  0.21417518    -0.12450
C1766       C  0.04717292  0.80745085  0.23758791     0.01480
H1767       H  0.03404563  0.73916894  0.18533071     0.14460
H1768       H  0.07085309  0.85489918  0.22259884     0.14460
C1769       C  0.04209057  0.81911057  0.27227868     0.36110
C1770       C  0.06022340  0.77460555  0.13476101     0.36020
N1771       N  0.03820571  0.82844525  0.30014422    -0.44230
N1772       N  0.06217829  0.76493906  0.10679195    -0.44230
C1773       C  0.96995298  0.78083974  0.22646588    -0.00640
C1774       C  0.96191227  0.81364151  0.23875900    -0.12510
C1775       C  0.94610179  0.83793182  0.21739938     0.01600
C1776       C  0.93621371  0.82862759  0.18371047    -0.00730
C1777       C  0.93994780  0.79442426  0.17346092    -0.12450
C1778       C  0.95761832  0.77098384  0.19381751     0.01480
H1779       H  0.97156918  0.82155976  0.26360026     0.14460
H1780       H  0.93197020  0.78669856  0.14793793     0.14460
C1781       C  0.96622575  0.73844045  0.17851262     0.36110
C1782       C  0.94450984  0.87291763  0.22926779     0.36020
N1783       N  0.97272801  0.71247120  0.16581462    -0.44230
N1784       N  0.94365557  0.90101561  0.23866423    -0.44230
C1785       C  0.02883240  0.71644272  0.27423160    -0.00640
C1786       C  0.05119670  0.72940911  0.29938223    -0.12510
C1787       C  0.06840077  0.70726490  0.32188790     0.01600
C1788       C  0.06403531  0.67152389  0.31870234    -0.00730
C1789       C  0.04605376  0.65866617  0.29027808    -0.12450
C1790       C  0.02834278  0.68080078  0.26821181     0.01480
H1791       H  0.05202776  0.75670709  0.30418296     0.14460
H1792       H  0.04311807  0.63119815  0.28712412     0.14460
C1793       C  0.00704875  0.66613750  0.24166949     0.36110
C1794       C  0.08905811  0.72183205  0.34896144     0.36020
N1795       N  0.99000464  0.65411732  0.22051091    -0.44230
N1796       N  0.10579287  0.73363144  0.37047606    -0.44230
C1797       C  0.96763775  0.73114329  0.28639790    -0.00640
C1798       C  0.97347436  0.73591948  0.32173477    -0.12510
C1799       C  0.96009594  0.71299536  0.34584219     0.01600
C1800       C  0.93811800  0.68646415  0.33487980    -0.00730
C1801       C  0.92729189  0.68563067  0.30074140    -0.12450
C1802       C  0.94123283  0.70819242  0.27659393     0.01480
H1803       H  0.99272135  0.75425069  0.33003006     0.14460
H1804       H  0.90872277  0.66648619  0.29270541     0.14460
C1805       C  0.92657925  0.70740465  0.24277871     0.36110
C1806       C  0.97328580  0.71418544  0.38048452     0.36020
N1807       N  0.91200693  0.70581560  0.21694701    -0.44230
N1808       N  0.98421496  0.71477443  0.40809638    -0.44230
C1809       C  0.22800369  0.03246358  0.78146926    -0.00640
C1810       C  0.24089095  0.04439206  0.81278452    -0.12510
C1811       C  0.21928988  0.06079328  0.83626012     0.01600
C1812       C  0.18424946  0.06587942  0.82792124    -0.00730
C1813       C  0.17366406  0.05991900  0.79391610    -0.12450
C1814       C  0.19535422  0.04359976  0.77063086     0.01480
H1815       H  0.26676379  0.03766393  0.82041264     0.14460
H1816       H  0.14754699  0.06568401  0.78611571     0.14460
C1817       C  0.18245476  0.03594664  0.73676472     0.36110
C1818       C  0.23336686  0.06917538  0.86938948     0.36020
N1819       N  0.17195787  0.02992014  0.70964402    -0.44230
N1820       N  0.24527825  0.07574711  0.89575870    -0.44230
C1821       C  0.22567337  0.96858016  0.78121072    -0.00640
C1822       C  0.19426412  0.95872437  0.76652643    -0.12510
C1823       C  0.16847350  0.94384384  0.78667412     0.01600
C1824       C  0.17569865  0.93465763  0.82101002    -0.00730
C1825       C  0.20938796  0.93880474  0.83331231    -0.12450
C1826       C  0.23370455  0.95707358  0.81456081     0.01480
H1827       H  0.18803051  0.96725896  0.74083547     0.14460
H1828       H  0.21565144  0.93139272  0.85940700     0.14460
C1829       C  0.26427067  0.96798178  0.83247342     0.36110
C1830       C  0.13398446  0.94430481  0.77320123     0.36020
N1831       N  0.28803393  0.97695892  0.84793519    -0.44230
N1832       N  0.10646883  0.94619712  0.76213993    -0.44230
C1833       C  0.28319166  0.03132730  0.73032538    -0.00640
C1834       C  0.26961331  0.04560173  0.70024520    -0.12510
C1835       C  0.29091825  0.06274935  0.67711962     0.01600
C1836       C  0.32636836  0.06602435  0.68441496    -0.00730
C1837       C  0.33830124  0.05722767  0.71725344    -0.12450
C1838       C  0.31683794  0.04007470  0.74029873     0.01480
H1839       H  0.24330831  0.04009366  0.69300016     0.14460
H1840       H  0.36508699  0.06103555  0.72389853     0.14460
C1841       C  0.33051309  0.02983555  0.77310870     0.36110
C1842       C  0.27610601  0.07483375  0.64535193     0.36020
N1843       N  0.34164432  0.02223316  0.79956254    -0.44230
N1844       N  0.26419007  0.08451005  0.61992629    -0.44230
C1845       C  0.27690848  0.96796696  0.72432811    -0.00640
C1846       C  0.26511252  0.96566435  0.69029672    -0.12510
C1847       C  0.28553656  0.95086162  0.66478974     0.01600
C1848       C  0.31735837  0.93608241  0.67384241    -0.00730
C1849       C  0.32594209  0.93305149  0.70860945    -0.12450
C1850       C  0.30614651  0.94889098  0.73382326     0.01480
H1851       H  0.24221021  0.97957626  0.68279825     0.14460
H1852       H  0.34971495  0.92050035  0.71590193     0.14460
C1853       C  0.31834095  0.94692963  0.76859939     0.36110
C1854       C  0.27552791  0.95571792  0.62945608     0.36020
N1855       N  0.32961129  0.94390227  0.79588617    -0.44230
N1856       N  0.26761023  0.96000628  0.60116354    -0.44230
C1857       C  0.06803621  0.17428578  0.81900856    -0.00640
C1858       C  0.05747942  0.16170796  0.78692983    -0.12510
C1859       C  0.04048228  0.18292799  0.76341595     0.01600
C1860       C  0.03388459  0.21742943  0.77177825    -0.00730
C1861       C  0.04964362  0.23123719  0.80110108    -0.12450
C1862       C  0.06620753  0.20998001  0.82494571     0.01480
H1863       H  0.05988644  0.13462112  0.78126266     0.14460
H1864       H  0.04552861  0.25797329  0.80738686     0.14460
C1865       C  0.07935469  0.22526932  0.85600475     0.36110
C1866       C  0.02824545  0.16796029  0.73191651     0.36020
N1867       N  0.08983157  0.23765734  0.88086587    -0.44230
N1868       N  0.01915854  0.15515623  0.70673507    -0.44230
C1869       C  0.97079153  0.22518201  0.77940246    -0.00640
C1870       C  0.96976079  0.23610943  0.81368859    -0.12510
C1871       C  0.95450519  0.21571829  0.83895418     0.01600
C1872       C  0.93867463  0.18453433  0.82952001    -0.00730
C1873       C  0.93465018  0.17687380  0.79460883    -0.12450
C1874       C  0.95039207  0.19700205  0.76952080     0.01480
H1875       H  0.98468403  0.25828783  0.82139395     0.14460
H1876       H  0.92124885  0.15368330  0.78703441     0.14460
C1877       C  0.94728527  0.18637773  0.73427658     0.36110
C1878       C  0.95960820  0.22516535  0.87439192     0.36020
N1879       N  0.94395268  0.17725355  0.70624400    -0.44230
N1880       N  0.96392812  0.23264718  0.90278065    -0.44230
C1881       C  0.03306603  0.26991575  0.71608953    -0.00640
C1882       C  0.05261340  0.29682363  0.72979924    -0.12510
C1883       C  0.06951550  0.31997868  0.70816540     0.01600
C1884       C  0.06748406  0.31575565  0.67224837    -0.00730
C1885       C  0.05309710  0.28548310  0.65917524    -0.12450
C1886       C  0.03592924  0.26259730  0.68078494     0.01480
H1887       H  0.05166840  0.30190690  0.75708266     0.14460
H1888       H  0.05239005  0.28121624  0.63170949     0.14460
C1889       C  0.01869216  0.23363543  0.66551874     0.36110
C1890       C  0.08745202  0.34852615  0.72340724     0.36020
N1891       N  0.00493015  0.21065139  0.65273602    -0.44230
N1892       N  0.10200795  0.37119744  0.73584346    -0.44230
C1893       C  0.97047478  0.27923558  0.72587918    -0.00640
C1894       C  0.95098715  0.26800004  0.69785636    -0.12510
C1895       C  0.93334052  0.29129928  0.67713863     0.01600
C1896       C  0.93512798  0.32668277  0.68445897    -0.00730
C1897       C  0.94976951  0.33720522  0.71564907    -0.12450
C1898       C  0.96722922  0.31365240  0.73651109     0.01480
H1899       H  0.95253733  0.24154885  0.68979708     0.14460
H1900       H  0.95030490  0.36421833  0.72223966     0.14460
C1901       C  0.98402490  0.32585055  0.76718323     0.36110
C1902       C  0.91534215  0.27838218  0.64741880     0.36020
N1903       N  0.99738137  0.33567229  0.79183029    -0.44230
N1904       N  0.90086911  0.26782764  0.62372740    -0.44230
loop_ 
_geom_bond_atom_site_label_1 
_geom_bond_atom_site_label_2 
_geom_bond_distance 
_geom_bond_site_symmetry_2 
_ccdc_geom_bond_type 
C1            C2   1.353       .  D
C1         C1881   1.488       .  S
C1         C1893   1.491   1_455  S
C2         C1860   1.493       .  S
C2         C1869   1.488   1_455  S
C3            C4   1.349   1_565  D
C3         C1833   1.486   1_565  S
C3         C1845   1.490       .  S
C4         C1809   1.487       .  S
C4         C1821   1.486   1_545  S
C5            C6   1.356   1_655  D
C5         C1785   1.494   1_655  S
C5         C1797   1.500       .  S
C6         C1761   1.494       .  S
C6         C1773   1.486   1_455  S
C7            C8   1.353       .  D
C7         C1737   1.487   1_565  S
C7         C1749   1.496       .  S
C8         C1716   1.494   1_565  S
C8         C1725   1.486       .  S
C9           C10   1.355   1_556  D
C9         C1689   1.489   1_556  S
C9         C1704   1.491       .  S
C10        C1665   1.493       .  S
C10        C1677   1.490   1_554  S
C11          C12   1.357       .  D
C11        C1641   1.491   1_556  S
C11        C1653   1.495       .  S
C12        C1617   1.493   1_556  S
C12        C1632   1.493       .  S
C13          C14   1.352       .  D
C13        C1569   1.484       .  S
C13        C1581   1.493   1_554  S
C14        C1593   1.494       .  S
C14        C1608   1.484   1_554  S
C15          C16   1.349       .  D
C15        C1524   1.493       .  S
C15        C1536   1.482   1_545  S
C16        C1545   1.483       .  S
C16        C1557   1.493   1_545  S
C17          C18   1.357       .  D
C17        C1497   1.494   1_655  S
C17        C1509   1.491       .  S
C18        C1473   1.490   1_655  S
C18        C1485   1.495       .  S
O19          C34   1.261       .  A
O19         Al27   1.896       .  S
C20          O30   1.264       .  A
C20          O21   1.260       .  A
C20         C167   1.466   1_565  S
O21         Al23   1.892       .  S
O22          C24   1.258       .  A
O22         Al23   1.902       .  S
Al23         O31   1.885       .  S
Al23         O33   1.906       .  S
Al23         O32   1.793       .  S
C24          O37   1.258       .  A
C24          C68   1.458   1_556  S
O25          C35   1.260       .  A
O25         Al27   1.905       .  S
O26          C39   1.262       .  A
O26         Al36   1.909       .  S
Al27         O40   1.896       .  S
Al27         O37   1.890       .  S
Al27         O32   1.790       .  S
O28          C35   1.260       .  A
O28         Al36   1.901       .  S
O29          C38   1.259       .  A
O29         Al36   1.910       .  S
O30         Al36   1.919       .  S
O31          C38   1.258       .  A
O32         Al36   1.793       .  S
O33          C34   1.260       .  A
C34        C1629   1.482       .  S
C35          C57   1.467   1_455  S
C38        C1824   1.485       .  S
C39          O40   1.258       .  A
C39        C1476   1.488       .  S
O41          C56   1.261       .  A
O41         Al49   1.899       .  S
C42          O52   1.262       .  A
C42          O43   1.260       .  A
C42         C101   1.469   1_556  S
O43         Al45   1.902       .  S
O44          C46   1.261       .  A
O44         Al45   1.913       .  S
Al45         O53   1.910       .  S
Al45         O55   1.891       .  S
Al45         O54   1.792       .  S
C46          O59   1.260       .  A
C46         C112   1.472   1_565  S
O47          C57   1.262       .  A
O47         Al49   1.911       .  S
O48          C61   1.259       .  A
O48         Al58   1.892       .  S
Al49         O62   1.907       .  S
Al49         O59   1.902       .  S
Al49         O54   1.795       .  S
O50          C57   1.263       .  A
O50         Al58   1.900       .  S
O51          C60   1.260       .  A
O51         Al58   1.903       .  S
O52         Al58   1.911       .  S
O53          C60   1.262       .  A
O54         Al58   1.790       .  S
O55          C56   1.258       .  A
C56        C1533   1.476       .  S
C60        C1584   1.485       .  S
C61          O62   1.258       .  A
C61        C1488   1.484       .  S
O63          C78   1.263       .  A
O63         Al71   1.912       .  S
C64          O74   1.264       .  A
C64          O65   1.260       .  A
C64          C86   1.468   1_455  S
O65         Al67   1.902       .  S
O66          C68   1.257       .  A
O66         Al67   1.895       .  S
Al67         O75   1.900       .  S
Al67         O77   1.895       .  S
Al67         O76   1.788       .  S
C68          O81   1.258       .  A
O69          C79   1.264       .  A
O69         Al71   1.915       .  S
O70          C83   1.262       .  A
O70         Al80   1.915       .  S
Al71         O84   1.891       .  S
Al71         O81   1.896       .  S
Al71         O76   1.789       .  S
O72          C79   1.264       .  A
O72         Al80   1.914       .  S
O73          C82   1.264       .  A
O73         Al80   1.918       .  S
O74         Al80   1.914       .  S
O75          C82   1.259       .  A
O76         Al80   1.786       .  S
O77          C78   1.261       .  A
C78        C1620   1.487       .  S
C79         C189   1.475   1_565  S
C82        C1764   1.492       .  S
C83          O84   1.257       .  A
C83        C1464   1.484       .  S
O85         C100   1.260       .  A
O85         Al93   1.907       .  S
C86          O96   1.263       .  A
C86          O87   1.261       .  A
O87         Al89   1.903       .  S
O88          C90   1.260       .  A
O88         Al89   1.899       .  S
Al89         O97   1.897       .  S
Al89         O99   1.890       .  S
Al89         O98   1.786       .  S
C90         O103   1.257       .  A
C90         C134   1.455   1_565  S
O91         C101   1.261       .  A
O91         Al93   1.904       .  S
O92         C105   1.261       .  A
O92        Al102   1.913       .  S
Al93        O106   1.886       .  S
Al93        O103   1.889       .  S
Al93         O98   1.787       .  S
O94         C101   1.263       .  A
O94        Al102   1.913       .  S
O95         C104   1.261       .  A
O95        Al102   1.899       .  S
O96        Al102   1.910       .  S
O97         C104   1.257       .  A
O98        Al102   1.785       .  S
O99         C100   1.261       .  A
C100       C1728   1.485       .  S
C104       C1776   1.484       .  S
C105        O106   1.259       .  A
C105       C1572   1.487       .  S
O107        C122   1.257       .  A
O107       Al115   1.898       .  S
C108        O118   1.257       .  A
C108        O109   1.258       .  A
C108        C152   1.465   1_655  S
O109       Al111   1.898       .  S
O110        C112   1.263       .  A
O110       Al111   1.912       .  S
Al111       O119   1.903       .  S
Al111       O121   1.898       .  S
Al111       O120   1.791       .  S
C112        O125   1.264       .  A
O113        C123   1.263       .  A
O113       Al115   1.915       .  S
O114        C127   1.260       .  A
O114       Al124   1.900       .  S
Al115       O128   1.903       .  S
Al115       O125   1.906       .  S
Al115       O120   1.792       .  S
O116        C123   1.261       .  A
O116       Al124   1.900       .  S
O117        C126   1.259       .  A
O117       Al124   1.892       .  S
O118       Al124   1.900       .  S
O119        C126   1.263       .  A
O120       Al124   1.797       .  S
O121        C122   1.257       .  A
C122       C1521   1.481       .  S
C123        C130   1.468   1_556  S
C126       C1872   1.478       .  S
C127        O128   1.260       .  A
C127       C1680   1.489       .  S
O129        C144   1.261       .  A
O129       Al137   1.908       .  S
C130        O140   1.258       .  A
C130        O131   1.260       .  A
O131       Al133   1.911       .  S
O132        C134   1.260       .  A
O132       Al133   1.889       .  S
Al133       O141   1.886       .  S
Al133       O143   1.909       .  S
Al133       O142   1.789       .  S
C134        O147   1.260       .  A
O135        C145   1.261       .  A
O135       Al137   1.895       .  S
O136        C149   1.260       .  A
O136       Al146   1.901       .  S
Al137       O150   1.898       .  S
Al137       O147   1.907       .  S
Al137       O142   1.789       .  S
O138        C145   1.263       .  A
O138       Al146   1.918       .  S
O139        C148   1.265       .  A
O139       Al146   1.917       .  S
O140       Al146   1.899       .  S
O141        C148   1.258       .  A
O142       Al146   1.787       .  S
O143        C144   1.261       .  A
C144       C1713   1.492       .  S
C145        C178   1.469   1_655  S
C148       C1668   1.477       .  S
C149        O150   1.258       .  A
C149       C1452   1.481       .  S
O151        C166   1.259       .  A
O151       Al159   1.903       .  S
C152        O162   1.262       .  A
C152        O153   1.262       .  A
O153       Al155   1.899       .  S
O154        C156   1.264       .  A
O154       Al155   1.921       .  S
Al155       O163   1.910       .  S
Al155       O165   1.901       .  S
Al155       O164   1.791       .  S
C156        O169   1.263       .  A
C156        C174   1.478   1_556  S
O157        C167   1.259       .  A
O157       Al159   1.904       .  S
O158        C171   1.262       .  A
O158       Al168   1.898       .  S
Al159       O172   1.905       .  S
Al159       O169   1.912       .  S
Al159       O164   1.793       .  S
O160        C167   1.258       .  A
O160       Al168   1.896       .  S
O161        C170   1.257       .  A
O161       Al168   1.898       .  S
O162       Al168   1.907       .  S
O163        C170   1.260       .  A
O164       Al168   1.793       .  S
O165        C166   1.261       .  A
C166       C1440   1.490       .  S
C170       C1857   1.489       .  S
C171        O172   1.261       .  A
C171       C1812   1.489       .  S
O173        C188   1.260       .  A
O173       Al181   1.896       .  S
C174        O184   1.265       .  A
C174        O175   1.267       .  A
O175       Al177   1.925       .  S
O176        C178   1.262       .  A
O176       Al177   1.909       .  S
Al177       O185   1.892       .  S
Al177       O187   1.908       .  S
Al177       O186   1.790       .  S
C178        O191   1.257       .  A
O179        C189   1.262       .  A
O179       Al181   1.908       .  S
O180        C193   1.263       .  A
O180       Al190   1.913       .  S
Al181       O194   1.893       .  S
Al181       O191   1.894       .  S
Al181       O186   1.790       .  S
O182        C189   1.264       .  A
O182       Al190   1.920       .  S
O183        C192   1.260       .  A
O183       Al190   1.915       .  S
O184       Al190   1.912       .  S
O185        C192   1.257       .  A
O186       Al190   1.792       .  S
O187        C188   1.262       .  A
C188       C1404   1.480       .  S
C192       C1425   1.489       .  S
C193        O194   1.258       .  A
C193       C1416   1.489       .  S
C195        C196   1.355       .  D
C195       C1365   1.484       .  S
C195       C1392   1.496       .  S
C196       C1356   1.502       .  S
C196       C1377   1.487       .  S
C197        C198   1.350       .  D
C197       C1317   1.491       .  S
C197       C1341   1.489       .  S
C198       C1305   1.486       .  S
C198       C1332   1.489       .  S
C199        C200   1.356       .  D
C199       C1260   1.492       .  S
C199       C1281   1.490       .  S
C200       C1269   1.491       .  S
C200       C1293   1.494       .  S
C201        C202   1.355       .  D
C201       C1428   1.493       .  S
C201       C1437   1.492   1_554  S
C202       C1236   1.492       .  S
C202       C1248   1.491   1_554  S
C203        C204   1.350       .  D
C203       C1413   1.485       .  S
C203       C1461   1.492   1_545  S
C204       C1212   1.491       .  S
C204       C1221   1.485   1_545  S
C205        C206   1.352       .  D
C205       C1173   1.490       .  S
C205       C1197   1.487       .  S
C206       C1161   1.487       .  S
C206       C1185   1.492       .  S
C207        C208   1.350       .  D
C207       C1137   1.488       .  S
C207       C1149   1.491       .  S
C208       C1116   1.489       .  S
C208       C1128   1.487       .  S
C209        C210   1.356       .  D
C209       C1080   1.489       .  S
C209       C1104   1.493       .  S
C210       C1068   1.494       .  S
C210       C1089   1.487       .  S
O211        C226   1.260       .  A
O211       Al219   1.908       .  S
C212        O222   1.262       .  A
C212        O213   1.261       .  A
C212        C271   1.465       .  S
O213       Al215   1.897       .  S
O214        C216   1.266       .  A
O214       Al215   1.930       .  S
Al215       O223   1.911       .  S
Al215       O225   1.895       .  S
Al215       O224   1.790       .  S
C216        O229   1.263       .  A
C216        C366   1.474       .  S
O217        C227   1.258       .  A
O217       Al219   1.910       .  S
O218        C231   1.262       .  A
O218       Al228   1.901       .  S
Al219       O232   1.896       .  S
Al219       O229   1.901       .  S
Al219       O224   1.794       .  S
O220        C227   1.258       .  A
O220       Al228   1.899       .  S
O221        C230   1.256       .  A
O221       Al228   1.894       .  S
O222       Al228   1.903       .  S
O223        C230   1.261       .  A
O224       Al228   1.792       .  S
O225        C226   1.257       .  A
C226       C1113   1.485       .  S
C227        C249   1.470   1_565  S
C230       C1065   1.485       .  S
C231        O232   1.262       .  A
C231       C1224   1.474       .  S
O233        C248   1.263       .  A
O233       Al241   1.895       .  S
C234        O244   1.267       .  A
C234        O235   1.262       .  A
C234        C359   1.471       .  S
O235       Al237   1.898       .  S
O236        C238   1.261       .  A
O236       Al237   1.914       .  S
Al237       O245   1.910       .  S
Al237       O247   1.900       .  S
Al237       O246   1.794       .  S
C238        O251   1.258       .  A
C238        C293   1.468       .  S
O239        C249   1.262       .  A
O239       Al241   1.908       .  S
O240        C253   1.261       .  A
O240       Al250   1.915       .  S
Al241       O254   1.894       .  S
Al241       O251   1.896       .  S
Al241       O246   1.787       .  S
O242        C249   1.262       .  A
O242       Al250   1.904       .  S
O243        C252   1.257       .  A
O243       Al250   1.892       .  S
O244       Al250   1.926       .  S
O245        C252   1.261       .  A
O246       Al250   1.789       .  S
O247        C248   1.260       .  A
C248       C1368   1.481       .  S
C252       C1308   1.485       .  S
C253        O254   1.257       .  A
C253       C1209   1.482       .  S
O255        C270   1.264       .  A
O255       Al263   1.920       .  S
C256        O266   1.264       .  A
C256        O257   1.262       .  A
C256        C282   1.469   1_565  S
O257       Al259   1.897       .  S
O258        C260   1.264       .  A
O258       Al259   1.921       .  S
Al259       O267   1.904       .  S
Al259       O269   1.891       .  S
Al259       O268   1.785       .  S
C260        O273   1.259       .  A
C260        C315   1.466       .  S
O261        C271   1.261       .  A
O261       Al263   1.913       .  S
O262        C275   1.264       .  A
O262       Al272   1.911       .  S
Al263       O276   1.886       .  S
Al263       O273   1.892       .  S
Al263       O268   1.791       .  S
O264        C271   1.258       .  A
O264       Al272   1.891       .  S
O265        C274   1.257       .  A
O265       Al272   1.895       .  S
O266       Al272   1.921       .  S
O267        C274   1.260       .  A
O268       Al272   1.787       .  S
O269        C270   1.258       .  A
C270       C1053   1.485       .  S
C274       C1752   1.476       .  S
C275        O276   1.258       .  A
C275       C1092   1.473       .  S
O277        C292   1.264       .  A
O277       Al285   1.915       .  S
C278        O288   1.262       .  A
C278        O279   1.259       .  A
C278        C337   1.466       .  S
O279       Al281   1.894       .  S
O280        C282   1.258       .  A
O280       Al281   1.902       .  S
Al281       O289   1.902       .  S
Al281       O291   1.887       .  S
Al281       O290   1.793       .  S
C282        O295   1.258       .  A
O283        C293   1.265       .  A
O283       Al285   1.917       .  S
O284        C297   1.259       .  A
O284       Al294   1.903       .  S
Al285       O298   1.900       .  S
Al285       O295   1.901       .  S
Al285       O290   1.795       .  S
O286        C293   1.261       .  A
O286       Al294   1.896       .  S
O287        C296   1.262       .  A
O287       Al294   1.911       .  S
O288       Al294   1.919       .  S
O289        C296   1.259       .  A
O290       Al294   1.795       .  S
O291        C292   1.259       .  A
C292       C1740   1.480       .  S
C296       C1041   1.492       .  S
C297        O298   1.256       .  A
C297       C1389   1.491       .  S
O299        C314   1.259       .  A
O299       Al307   1.896       .  S
C300        O310   1.263       .  A
C300        O301   1.264       .  A
C300        C326   1.471   1_565  S
O301       Al303   1.913       .  S
O302        C304   1.260       .  A
O302       Al303   1.902       .  S
Al303       O311   1.900       .  S
Al303       O313   1.900       .  S
Al303       O312   1.786       .  S
C304        O317   1.259       .  A
C304        C370   1.467       .  S
O305        C315   1.260       .  A
O305       Al307   1.897       .  S
O306        C319   1.262       .  A
O306       Al316   1.901       .  S
Al307       O320   1.910       .  S
Al307       O317   1.905       .  S
Al307       O312   1.789       .  S
O308        C315   1.262       .  A
O308       Al316   1.914       .  S
O309        C318   1.261       .  A
O309       Al316   1.907       .  S
O310       Al316   1.908       .  S
O311        C318   1.257       .  A
O312       Al316   1.788       .  S
O313        C314   1.262       .  A
C314       C1200   1.478       .  S
C318       C1560   1.488       .  S
C319        O320   1.262       .  A
C319       C1029   1.486       .  S
O321        C336   1.261       .  A
O321       Al329   1.905       .  S
C322        O332   1.260       .  A
C322        O323   1.262       .  A
C322        C348   1.468       .  S
O323       Al325   1.908       .  S
O324        C326   1.261       .  A
O324       Al325   1.907       .  S
Al325       O333   1.912       .  S
Al325       O335   1.891       .  S
Al325       O334   1.787       .  S
C326        O339   1.261       .  A
O327        C337   1.262       .  A
O327       Al329   1.909       .  S
O328        C341   1.258       .  A
O328       Al338   1.880       .  S
Al329       O342   1.912       .  S
Al329       O339   1.908       .  S
Al329       O334   1.793       .  S
O330        C337   1.262       .  A
O330       Al338   1.903       .  S
O331        C340   1.260       .  A
O331       Al338   1.902       .  S
O332       Al338   1.903       .  S
O333        C340   1.261       .  A
O334       Al338   1.787       .  S
O335        C336   1.259       .  A
C336       C1548   1.479       .  S
C340       C1017   1.489       .  S
C341        O342   1.260       .  A
C341       C1008   1.486       .  S
O343        C358   1.258       .  A
O343       Al351   1.888       .  S
C344        O354   1.260       .  A
C344        O345   1.262       .  A
C344        C381   1.461   1_545  S
O345       Al347   1.909       .  S
O346        C348   1.259       .  A
O346       Al347   1.899       .  S
Al347       O355   1.898       .  S
Al347       O357   1.914       .  S
Al347       O356   1.787       .  S
C348        O361   1.264       .  A
O349        C359   1.261       .  A
O349       Al351   1.904       .  S
O350        C363   1.258       .  A
O350       Al360   1.888       .  S
Al351       O364   1.920       .  S
Al351       O361   1.917       .  S
Al351       O356   1.782       .  S
O352        C359   1.263       .  A
O352       Al360   1.917       .  S
O353        C362   1.261       .  A
O353       Al360   1.902       .  S
O354       Al360   1.894       .  S
O355        C362   1.260       .  A
O356       Al360   1.785       .  S
O357        C358   1.262       .  A
C358        C996   1.482       .  S
C362       C1836   1.480       .  S
C363        O364   1.263       .  A
C363       C1329   1.479       .  S
O365        C380   1.257       .  A
O365       Al373   1.894       .  S
C366        O376   1.260       .  A
C366        O367   1.264       .  A
O367       Al369   1.928       .  S
O368        C370   1.262       .  A
O368       Al369   1.898       .  S
Al369       O377   1.888       .  S
Al369       O379   1.913       .  S
Al369       O378   1.789       .  S
C370        O383   1.263       .  A
O371        C381   1.258       .  A
O371       Al373   1.888       .  S
O372        C385   1.258       .  A
O372       Al382   1.894       .  S
Al373       O386   1.902       .  S
Al373       O383   1.916       .  S
Al373       O378   1.786       .  S
O374        C381   1.260       .  A
O374       Al382   1.909       .  S
O375        C384   1.263       .  A
O375       Al382   1.912       .  S
O376       Al382   1.900       .  S
O377        C384   1.259       .  A
O378       Al382   1.791       .  S
O379        C380   1.261       .  A
C380       C1176   1.483       .  S
C384       C1125   1.477       .  S
C385        O386   1.262       .  A
C385       C1848   1.478       .  S
C387        C388   1.353       .  D
C387        C969   1.491       .  S
C387        C981   1.490       .  S
C388       C1032   1.489       .  S
C388       C1056   1.488       .  S
C389        C390   1.348       .  D
C389        C945   1.489       .  S
C389        C957   1.486       .  S
C390        C921   1.486       .  S
C390        C933   1.487       .  S
C391        C392   1.351       .  D
C391        C993   1.484       .  S
C391       C1020   1.491       .  S
C392        C897   1.493       .  S
C392        C909   1.486       .  S
O393        C408   1.259       .  A
O393       Al401   1.902       .  S
C394        O404   1.261       .  A
C394        O395   1.261       .  A
C394        C519   1.477       .  S
O395       Al397   1.914       .  S
O396        C398   1.263       .  A
O396       Al397   1.904       .  S
Al397       O405   1.893       .  S
Al397       O407   1.914       .  S
Al397       O406   1.789       .  S
C398        O411   1.263       .  A
C398        C420   1.466   1_554  S
O399        C409   1.260       .  A
O399       Al401   1.896       .  S
O400        C413   1.260       .  A
O400       Al410   1.909       .  S
Al401       O414   1.894       .  S
Al401       O411   1.911       .  S
Al401       O406   1.787       .  S
O402        C409   1.262       .  A
O402       Al410   1.909       .  S
O403        C412   1.264       .  A
O403       Al410   1.909       .  S
O404       Al410   1.913       .  S
O405        C412   1.261       .  A
O406       Al410   1.790       .  S
O407        C408   1.261       .  A
C408       C1596   1.488       .  S
C409        C453   1.466       .  S
C412        C888   1.481       .  S
C413        O414   1.259       .  A
C413       C1101   1.486       .  S
O415        C430   1.261       .  A
O415       Al423   1.901       .  S
C416        O426   1.267       .  A
C416        O417   1.266       .  A
C416        C460   1.477       .  S
O417       Al419   1.912       .  S
O418        C420   1.261       .  A
O418       Al419   1.912       .  S
Al419       O427   1.896       .  S
Al419       O429   1.903       .  S
Al419       O428   1.785       .  S
C420        O433   1.257       .  A
O421        C431   1.257       .  A
O421       Al423   1.884       .  S
O422        C435   1.262       .  A
O422       Al432   1.906       .  S
Al423       O436   1.890       .  S
Al423       O433   1.897       .  S
Al423       O428   1.791       .  S
O424        C431   1.260       .  A
O424       Al432   1.898       .  S
O425        C434   1.258       .  A
O425       Al432   1.910       .  S
O426       Al432   1.925       .  S
O427        C434   1.259       .  A
O428       Al432   1.787       .  S
O429        C430   1.263       .  A
C430       C1605   1.485       .  S
C431        C497   1.457       .  S
C434       C1188   1.490       .  S
C435        O436   1.257       .  A
C435        C873   1.475       .  S
O437        C452   1.258       .  A
O437       Al445   1.906       .  S
C438        O448   1.258       .  A
C438        O439   1.260       .  A
C438        C475   1.461   1_554  S
O439       Al441   1.907       .  S
O440        C442   1.259       .  A
O440       Al441   1.889       .  S
Al441       O449   1.888       .  S
Al441       O451   1.895       .  S
Al441       O450   1.787       .  S
C442        O455   1.265       .  A
C442        C552   1.463       .  S
O443        C453   1.259       .  A
O443       Al445   1.893       .  S
O444        C457   1.257       .  A
O444       Al454   1.888       .  S
Al445       O458   1.906       .  S
Al445       O455   1.919       .  S
Al445       O450   1.789       .  S
O446        C453   1.262       .  A
O446       Al454   1.913       .  S
O447        C456   1.263       .  A
O447       Al454   1.917       .  S
O448       Al454   1.892       .  S
O449        C456   1.259       .  A
O450       Al454   1.792       .  S
O451        C452   1.260       .  A
C452       C1284   1.486       .  S
C456       C1644   1.484       .  S
C457        O458   1.262       .  A
C457       C1077   1.477       .  S
O459        C474   1.259       .  A
O459       Al467   1.899       .  S
C460        O470   1.261       .  A
C460        O461   1.263       .  A
O461       Al463   1.918       .  S
O462        C464   1.262       .  A
O462       Al463   1.910       .  S
Al463       O471   1.890       .  S
Al463       O473   1.903       .  S
Al463       O472   1.793       .  S
C464        O477   1.260       .  A
C464        C541   1.473       .  S
O465        C475   1.260       .  A
O465       Al467   1.896       .  S
O466        C479   1.260       .  A
O466       Al476   1.912       .  S
Al467       O480   1.890       .  S
Al467       O477   1.907       .  S
Al467       O472   1.793       .  S
O468        C475   1.260       .  A
O468       Al476   1.902       .  S
O469        C478   1.259       .  A
O469       Al476   1.903       .  S
O470       Al476   1.908       .  S
O471        C478   1.257       .  A
O472       Al476   1.798       .  S
O473        C474   1.260       .  A
C474        C936   1.481       .  S
C478       C1164   1.479       .  S
C479        O480   1.259       .  A
C479       C1656   1.486       .  S
O481        C496   1.261       .  A
O481       Al489   1.895       .  S
C482        O492   1.264       .  A
C482        O483   1.263       .  A
C482        C508   1.468   1_556  S
O483       Al485   1.898       .  S
O484        C486   1.262       .  A
O484       Al485   1.918       .  S
Al485       O493   1.896       .  S
Al485       O495   1.907       .  S
Al485       O494   1.788       .  S
C486        O499   1.259       .  A
C486        C526   1.466       .  S
O487        C497   1.256       .  A
O487       Al489   1.896       .  S
O488        C501   1.264       .  A
O488       Al498   1.911       .  S
Al489       O502   1.891       .  S
Al489       O499   1.896       .  S
Al489       O494   1.789       .  S
O490        C497   1.257       .  A
O490       Al498   1.886       .  S
O491        C500   1.256       .  A
O491       Al498   1.896       .  S
O492       Al498   1.917       .  S
O493        C500   1.258       .  A
O494       Al498   1.788       .  S
O495        C496   1.260       .  A
C496        C912   1.485       .  S
C500       C1701   1.477       .  S
C501        O502   1.259       .  A
C501        C861   1.477       .  S
O503        C518   1.264       .  A
O503       Al511   1.909       .  S
C504        O514   1.260       .  A
C504        O505   1.261       .  A
C504        C548   1.467       .  S
O505       Al507   1.905       .  S
O506        C508   1.256       .  A
O506       Al507   1.892       .  S
Al507       O515   1.892       .  S
Al507       O517   1.896       .  S
Al507       O516   1.792       .  S
C508        O521   1.261       .  A
O509        C519   1.268       .  A
O509       Al511   1.925       .  S
O510        C523   1.257       .  A
O510       Al520   1.898       .  S
Al511       O524   1.903       .  S
Al511       O521   1.908       .  S
Al511       O516   1.788       .  S
O512        C519   1.265       .  A
O512       Al520   1.910       .  S
O513        C522   1.263       .  A
O513       Al520   1.913       .  S
O514       Al520   1.908       .  S
O515        C522   1.261       .  A
O516       Al520   1.791       .  S
O517        C518   1.259       .  A
C518       C1692   1.482       .  S
C522       C1380   1.488       .  S
C523        O524   1.257       .  A
C523        C852   1.489       .  S
O525        C540   1.258       .  A
O525       Al533   1.894       .  S
C526        O536   1.259       .  A
C526        O527   1.263       .  A
O527       Al529   1.920       .  S
O528        C530   1.262       .  A
O528       Al529   1.900       .  S
Al529       O537   1.895       .  S
Al529       O539   1.907       .  S
Al529       O538   1.794       .  S
C530        O543   1.263       .  A
C530        C563   1.469   1_556  S
O531        C541   1.261       .  A
O531       Al533   1.903       .  S
O532        C545   1.259       .  A
O532       Al542   1.891       .  S
Al533       O546   1.907       .  S
Al533       O543   1.914       .  S
Al533       O538   1.788       .  S
O534        C541   1.261       .  A
O534       Al542   1.916       .  S
O535        C544   1.262       .  A
O535       Al542   1.912       .  S
O536       Al542   1.892       .  S
O537        C544   1.258       .  A
O538       Al542   1.790       .  S
O539        C540   1.260       .  A
C540       C1245   1.484       .  S
C544        C900   1.479       .  S
C545        O546   1.261       .  A
C545        C924   1.477       .  S
O547        C562   1.258       .  A
O547       Al555   1.893       .  S
C548        O558   1.259       .  A
C548        O549   1.265       .  A
O549       Al551   1.919       .  S
O550        C552   1.258       .  A
O550       Al551   1.889       .  S
Al551       O559   1.885       .  S
Al551       O561   1.917       .  S
Al551       O560   1.791       .  S
C552        O565   1.262       .  A
O553        C563   1.260       .  A
O553       Al555   1.899       .  S
O554        C567   1.260       .  A
O554       Al564   1.903       .  S
Al555       O568   1.905       .  S
Al555       O565   1.913       .  S
Al555       O560   1.787       .  S
O556        C563   1.262       .  A
O556       Al564   1.917       .  S
O557        C566   1.263       .  A
O557       Al564   1.919       .  S
O558       Al564   1.897       .  S
O559        C566   1.256       .  A
O560       Al564   1.789       .  S
O561        C562   1.264       .  A
C562       C1257   1.488       .  S
C566       C1353   1.475       .  S
C567        O568   1.262       .  A
C567       C1233   1.482       .  S
C569        C570   1.355       .  D
C569        C825   1.496       .  S
C569        C837   1.483       .  S
C570        C864   1.488       .  S
C570        C876   1.500       .  S
C571        C572   1.353       .  D
C571       C1401   1.491   1_655  S
C571       C1449   1.490       .  S
C572        C804   1.486   1_655  S
C572        C816   1.493       .  S
C573        C574   1.353       .  D
C573        C780   1.487       .  S
C573        C789   1.495       .  S
C574       C1005   1.486       .  S
C574       C1044   1.495       .  S
C575        C576   1.350       .  D
C575        C849   1.491       .  S
C575        C885   1.484       .  S
C576        C753   1.485       .  S
C576        C765   1.492       .  S
O577        C592   1.262       .  A
O577       Al585   1.914       .  S
C578        O588   1.260       .  A
C578        O579   1.258       .  A
C578        C703   1.464       .  S
O579       Al581   1.889       .  S
O580        C582   1.262       .  A
O580       Al581   1.912       .  S
Al581       O589   1.904       .  S
Al581       O591   1.894       .  S
Al581       O590   1.788       .  S
C582        O595   1.262       .  A
C582        C604   1.467   1_455  S
O583        C593   1.265       .  A
O583       Al585   1.928       .  S
O584        C597   1.262       .  A
O584       Al594   1.905       .  S
Al585       O598   1.892       .  S
Al585       O595   1.899       .  S
Al585       O590   1.791       .  S
O586        C593   1.261       .  A
O586       Al594   1.901       .  S
O587        C596   1.260       .  A
O587       Al594   1.900       .  S
O588       Al594   1.912       .  S
O589        C596   1.262       .  A
O590       Al594   1.794       .  S
O591        C592   1.257       .  A
C592       C1788   1.480       .  S
C593        C644   1.474       .  S
C596       C1296   1.478       .  S
C597        O598   1.257       .  A
C597       C1140   1.478       .  S
O599        C614   1.264       .  A
O599       Al607   1.917       .  S
C600        O610   1.262       .  A
C600        O601   1.256       .  A
C600        C622   1.462       .  S
O601       Al603   1.886       .  S
O602        C604   1.260       .  A
O602       Al603   1.906       .  S
Al603       O611   1.919       .  S
Al603       O613   1.880       .  S
Al603       O612   1.787       .  S
C604        O617   1.261       .  A
O605        C615   1.267       .  A
O605       Al607   1.932       .  S
O606        C619   1.261       .  A
O606       Al616   1.912       .  S
Al607       O620   1.897       .  S
Al607       O617   1.903       .  S
Al607       O612   1.786       .  S
O608        C615   1.262       .  A
O608       Al616   1.901       .  S
O609        C618   1.260       .  A
O609       Al616   1.894       .  S
O610       Al616   1.917       .  S
O611        C618   1.265       .  A
O612       Al616   1.788       .  S
O613        C614   1.256       .  A
C614       C1800   1.470       .  S
C615        C666   1.475       .  S
C618        C972   1.480       .  S
C619        O620   1.258       .  A
C619        C768   1.480       .  S
O621        C636   1.256       .  A
O621       Al629   1.898       .  S
C622        O632   1.260       .  A
C622        O623   1.261       .  A
O623       Al625   1.909       .  S
O624        C626   1.263       .  A
O624       Al625   1.904       .  S
Al625       O633   1.909       .  S
Al625       O635   1.884       .  S
Al625       O634   1.789       .  S
C626        O639   1.263       .  A
C626        C725   1.469       .  S
O627        C637   1.258       .  A
O627       Al629   1.892       .  S
O628        C641   1.260       .  A
O628       Al638   1.901       .  S
Al629       O642   1.899       .  S
Al629       O639   1.911       .  S
Al629       O634   1.786       .  S
O630        C637   1.258       .  A
O630       Al638   1.899       .  S
O631        C640   1.261       .  A
O631       Al638   1.896       .  S
O632       Al638   1.895       .  S
O633        C640   1.260       .  A
O634       Al638   1.787       .  S
O635        C636   1.258       .  A
C636        C840   1.479       .  S
C637        C648   1.459   1_655  S
C640        C984   1.487       .  S
C641        O642   1.263       .  A
C641       C1512   1.479       .  S
O643        C658   1.256       .  A
O643       Al651   1.888       .  S
C644        O654   1.262       .  A
C644        O645   1.266       .  A
O645       Al647   1.929       .  S
O646        C648   1.261       .  A
O646       Al647   1.893       .  S
Al647       O655   1.903       .  S
Al647       O657   1.913       .  S
Al647       O656   1.790       .  S
C648        O661   1.261       .  A
O649        C659   1.257       .  A
O649       Al651   1.891       .  S
O650        C663   1.262       .  A
O650       Al660   1.900       .  S
Al651       O664   1.903       .  S
Al651       O661   1.900       .  S
Al651       O656   1.790       .  S
O652        C659   1.259       .  A
O652       Al660   1.909       .  S
O653        C662   1.261       .  A
O653       Al660   1.902       .  S
O654       Al660   1.902       .  S
O655        C662   1.259       .  A
O656       Al660   1.786       .  S
O657        C658   1.262       .  A
C658       C1500   1.481       .  S
C659        C736   1.462       .  S
C662       C1152   1.485       .  S
C663        O664   1.262       .  A
C663        C960   1.483       .  S
O665        C680   1.256       .  A
O665       Al673   1.894       .  S
C666        O676   1.261       .  A
C666        O667   1.263       .  A
O667       Al669   1.924       .  S
O668        C670   1.263       .  A
O668       Al669   1.905       .  S
Al669       O677   1.907       .  S
Al669       O679   1.911       .  S
Al669       O678   1.790       .  S
C670        O683   1.265       .  A
C670        C692   1.468   1_655  S
O671        C681   1.260       .  A
O671       Al673   1.900       .  S
O672        C685   1.259       .  A
O672       Al682   1.892       .  S
Al673       O686   1.907       .  S
Al673       O683   1.913       .  S
Al673       O678   1.789       .  S
O674        C681   1.259       .  A
O674       Al682   1.901       .  S
O675        C684   1.263       .  A
O675       Al682   1.897       .  S
O676       Al682   1.905       .  S
O677        C684   1.261       .  A
O678       Al682   1.784       .  S
O679        C680   1.260       .  A
C680        C813   1.483       .  S
C681        C710   1.465       .  S
C684        C756   1.487       .  S
C685        O686   1.261       .  A
C685        C777   1.480       .  S
O687        C702   1.260       .  A
O687       Al695   1.895       .  S
C688        O698   1.267       .  A
C688        O689   1.266       .  A
C688        C732   1.477       .  S
O689       Al691   1.914       .  S
O690        C692   1.259       .  A
O690       Al691   1.906       .  S
Al691       O699   1.898       .  S
Al691       O701   1.919       .  S
Al691       O700   1.791       .  S
C692        O705   1.258       .  A
O693        C703   1.257       .  A
O693       Al695   1.889       .  S
O694        C707   1.263       .  A
O694       Al704   1.913       .  S
Al695       O708   1.896       .  S
Al695       O705   1.903       .  S
Al695       O700   1.790       .  S
O696        C703   1.259       .  A
O696       Al704   1.903       .  S
O697        C706   1.258       .  A
O697       Al704   1.905       .  S
O698       Al704   1.922       .  S
O699        C706   1.258       .  A
O700       Al704   1.792       .  S
O701        C702   1.266       .  A
C702        C801   1.491       .  S
C706       C1320   1.488       .  S
C707        O708   1.259       .  A
C707       C1272   1.486       .  S
O709        C724   1.260       .  A
O709       Al717   1.904       .  S
C710        O720   1.259       .  A
C710        O711   1.260       .  A
O711       Al713   1.908       .  S
O712        C714   1.257       .  A
O712       Al713   1.887       .  S
Al713       O721   1.890       .  S
Al713       O723   1.900       .  S
Al713       O722   1.794       .  S
C714        O727   1.264       .  A
C714        C747   1.468   1_655  S
O715        C725   1.261       .  A
O715       Al717   1.900       .  S
O716        C729   1.258       .  A
O716       Al726   1.898       .  S
Al717       O730   1.914       .  S
Al717       O727   1.923       .  S
Al717       O722   1.795       .  S
O718        C725   1.261       .  A
O718       Al726   1.913       .  S
O719        C728   1.261       .  A
O719       Al726   1.907       .  S
O720       Al726   1.896       .  S
O721        C728   1.256       .  A
O722       Al726   1.792       .  S
O723        C724   1.261       .  A
C724       C1896   1.481       .  S
C728        C792   1.477       .  S
C729        O730   1.263       .  A
C729        C828   1.490       .  S
O731        C746   1.256       .  A
O731       Al739   1.896       .  S
C732        O742   1.259       .  A
C732        O733   1.262       .  A
O733       Al735   1.920       .  S
O734        C736   1.262       .  A
O734       Al735   1.894       .  S
Al735       O743   1.884       .  S
Al735       O745   1.907       .  S
Al735       O744   1.792       .  S
C736        O749   1.265       .  A
O737        C747   1.258       .  A
O737       Al739   1.894       .  S
O738        C751   1.258       .  A
O738       Al748   1.894       .  S
Al739       O752   1.907       .  S
Al739       O749   1.915       .  S
Al739       O744   1.791       .  S
O740        C747   1.263       .  A
O740       Al748   1.912       .  S
O741        C750   1.265       .  A
O741       Al748   1.914       .  S
O742       Al748   1.907       .  S
O743        C750   1.258       .  A
O744       Al748   1.789       .  S
O745        C746   1.260       .  A
C746        C948   1.482       .  S
C750       C1344   1.476       .  S
C751        O752   1.261       .  A
C751       C1884   1.482       .  S
C753        C754   1.403       .  A
C753        C758   1.409       .  A
C754        C755   1.404       .  A
C754        H759   1.084       .  S
C755        C756   1.416       .  A
C755        C762   1.443       .  S
C756        C757   1.405       .  A
C757        C758   1.392       .  A
C757        H760   1.085       .  S
C758        C761   1.443       .  S
C761        N763   1.157       .  T
C762        N764   1.157       .  T
C765        C766   1.403       .  A
C765        C770   1.413       .  A
C766        C767   1.403       .  A
C766        H771   1.083       .  S
C767        C768   1.413       .  A
C767        C774   1.443       .  S
C768        C769   1.401       .  A
C769        C770   1.398       .  A
C769        H772   1.085       .  S
C770        C773   1.443       .  S
C773        N775   1.157       .  T
C774        N776   1.157       .  T
C777        C778   1.401       .  A
C777        C782   1.414       .  A
C778        C779   1.396       .  A
C778        H783   1.085       .  S
C779        C780   1.411       .  A
C779        C786   1.442       .  S
C780        C781   1.404       .  A
C781        C782   1.402       .  A
C781        H784   1.085       .  S
C782        C785   1.443       .  S
C785        N787   1.157       .  T
C786        N788   1.157       .  T
C789        C790   1.407       .  A
C789        C794   1.411       .  A
C790        C791   1.400       .  A
C790        H795   1.085       .  S
C791        C792   1.411       .  A
C791        C798   1.445       .  S
C792        C793   1.401       .  A
C793        C794   1.400       .  A
C793        H796   1.085       .  S
C794        C797   1.438       .  S
C797        N799   1.157       .  T
C798        N800   1.157       .  T
C801        C802   1.408       .  A
C801        C806   1.421       .  A
C802        C803   1.405       .  A
C802        H807   1.084       .  S
C803        C804   1.409       .  A
C803        C810   1.442       .  S
C804        C805   1.398       .  A
C805        C806   1.394       .  A
C805        H808   1.085       .  S
C806        C809   1.446       .  S
C809        N811   1.158       .  T
C810        N812   1.157       .  T
C813        C814   1.403       .  A
C813        C818   1.413       .  A
C814        C815   1.401       .  A
C814        H819   1.084       .  S
C815        C816   1.411       .  A
C815        C822   1.440       .  S
C816        C817   1.405       .  A
C817        C818   1.401       .  A
C817        H820   1.084       .  S
C818        C821   1.445       .  S
C821        N823   1.157       .  T
C822        N824   1.156       .  T
C825        C826   1.403       .  A
C825        C830   1.411       .  A
C826        C827   1.404       .  A
C826        H831   1.082       .  S
C827        C828   1.417       .  A
C827        C834   1.444       .  S
C828        C829   1.405       .  A
C829        C830   1.401       .  A
C829        H832   1.085       .  S
C830        C833   1.443       .  S
C833        N835   1.157       .  T
C834        N836   1.157       .  T
C837        C838   1.405       .  A
C837        C842   1.412       .  A
C838        C839   1.403       .  A
C838        H843   1.084       .  S
C839        C840   1.414       .  A
C839        C846   1.444       .  S
C840        C841   1.402       .  A
C841        C842   1.390       .  A
C841        H844   1.086       .  S
C842        C845   1.444       .  S
C845        N847   1.158       .  T
C846        N848   1.157       .  T
C849        C850   1.401       .  A
C849        C854   1.411       .  A
C850        C851   1.400       .  A
C850        H855   1.083       .  S
C851        C852   1.416       .  A
C851        C858   1.443       .  S
C852        C853   1.407       .  A
C853        C854   1.400       .  A
C853        H856   1.085       .  S
C854        C857   1.441       .  S
C857        N859   1.157       .  T
C858        N860   1.157       .  T
C861        C862   1.403       .  A
C861        C866   1.411       .  A
C862        C863   1.399       .  A
C862        H867   1.085       .  S
C863        C864   1.410       .  A
C863        C870   1.443       .  S
C864        C865   1.404       .  A
C865        C866   1.399       .  A
C865        H868   1.082       .  S
C866        C869   1.444       .  S
C869        N871   1.157       .  T
C870        N872   1.157       .  T
C873        C874   1.398       .  A
C873        C878   1.410       .  A
C874        C875   1.399       .  A
C874        H879   1.086       .  S
C875        C876   1.415       .  A
C875        C882   1.436       .  S
C876        C877   1.409       .  A
C877        C878   1.401       .  A
C877        H880   1.085       .  S
C878        C881   1.445       .  S
C881        N883   1.157       .  T
C882        N884   1.157       .  T
C885        C886   1.401       .  A
C885        C890   1.410       .  A
C886        C887   1.399       .  A
C886        H891   1.084       .  S
C887        C888   1.414       .  A
C887        C894   1.444       .  S
C888        C889   1.404       .  A
C889        C890   1.398       .  A
C889        H892   1.085       .  S
C890        C893   1.442       .  S
C893        N895   1.157       .  T
C894        N896   1.157       .  T
C897        C898   1.406       .  A
C897        C902   1.410       .  A
C898        C899   1.399       .  A
C898        H903   1.084       .  S
C899        C900   1.411       .  A
C899        C906   1.445       .  S
C900        C901   1.404       .  A
C901        C902   1.402       .  A
C901        H904   1.085       .  S
C902        C905   1.441       .  S
C905        N907   1.157       .  T
C906        N908   1.157       .  T
C909        C910   1.405       .  A
C909        C914   1.408       .  A
C910        C911   1.405       .  A
C910        H915   1.085       .  S
C911        C912   1.415       .  A
C911        C918   1.443       .  S
C912        C913   1.405       .  A
C913        C914   1.392       .  A
C913        H916   1.085       .  S
C914        C917   1.442       .  S
C917        N919   1.157       .  T
C918        N920   1.157       .  T
C921        C922   1.402       .  A
C921        C926   1.413       .  A
C922        C923   1.402       .  A
C922        H927   1.084       .  S
C923        C924   1.413       .  A
C923        C930   1.444       .  S
C924        C925   1.400       .  A
C925        C926   1.395       .  A
C925        H928   1.085       .  S
C926        C929   1.443       .  S
C929        N931   1.157       .  T
C930        N932   1.157       .  T
C933        C934   1.399       .  A
C933        C938   1.411       .  A
C934        C935   1.400       .  A
C934        H939   1.083       .  S
C935        C936   1.414       .  A
C935        C942   1.442       .  S
C936        C937   1.403       .  A
C937        C938   1.399       .  A
C937        H940   1.085       .  S
C938        C941   1.443       .  S
C941        N943   1.157       .  T
C942        N944   1.156       .  T
C945        C946   1.405       .  A
C945        C950   1.408       .  A
C946        C947   1.400       .  A
C946        H951   1.085       .  S
C947        C948   1.413       .  A
C947        C954   1.444       .  S
C948        C949   1.405       .  A
C949        C950   1.400       .  A
C949        H952   1.085       .  S
C950        C953   1.440       .  S
C953        N955   1.157       .  T
C954        N956   1.157       .  T
C957        C958   1.401       .  A
C957        C962   1.409       .  A
C958        C959   1.399       .  A
C958        H963   1.084       .  S
C959        C960   1.417       .  A
C959        C966   1.444       .  S
C960        C961   1.404       .  A
C961        C962   1.398       .  A
C961        H964   1.084       .  S
C962        C965   1.441       .  S
C965        N967   1.157       .  T
C966        N968   1.157       .  T
C969        C970   1.405       .  A
C969        C974   1.409       .  A
C970        C971   1.399       .  A
C970        H975   1.084       .  S
C971        C972   1.412       .  A
C971        C978   1.444       .  S
C972        C973   1.405       .  A
C973        C974   1.402       .  A
C973        H976   1.085       .  S
C974        C977   1.441       .  S
C977        N979   1.157       .  T
C978        N980   1.157       .  T
C981        C982   1.407       .  A
C981        C986   1.409       .  A
C982        C983   1.406       .  A
C982        H987   1.084       .  S
C983        C984   1.414       .  A
C983        C990   1.443       .  S
C984        C985   1.404       .  A
C985        C986   1.393       .  A
C985        H988   1.085       .  S
C986        C989   1.441       .  S
C989        N991   1.157       .  T
C990        N992   1.157       .  T
C993        C994   1.399       .  A
C993        C998   1.410       .  A
C994        C995   1.394       .  A
C994        H999   1.082       .  S
C995        C996   1.415       .  A
C995       C1002   1.444       .  S
C996        C997   1.407       .  A
C997        C998   1.402       .  A
C997       H1000   1.085       .  S
C998       C1001   1.443       .  S
C1001      N1003   1.157       .  T
C1002      N1004   1.157       .  T
C1005      C1006   1.407       .  A
C1005      C1010   1.408       .  A
C1006      C1007   1.406       .  A
C1006      H1011   1.084       .  S
C1007      C1008   1.414       .  A
C1007      C1014   1.443       .  S
C1008      C1009   1.405       .  A
C1009      C1010   1.391       .  A
C1009      H1012   1.085       .  S
C1010      C1013   1.443       .  S
C1013      N1015   1.157       .  T
C1014      N1016   1.157       .  T
C1017      C1018   1.404       .  A
C1017      C1022   1.416       .  A
C1018      C1019   1.401       .  A
C1018      H1023   1.084       .  S
C1019      C1020   1.412       .  A
C1019      C1026   1.440       .  S
C1020      C1021   1.401       .  A
C1021      C1022   1.400       .  A
C1021      H1024   1.085       .  S
C1022      C1025   1.441       .  S
C1025      N1027   1.156       .  T
C1026      N1028   1.157       .  T
C1029      C1030   1.403       .  A
C1029      C1034   1.416       .  A
C1030      C1031   1.399       .  A
C1030      H1035   1.085       .  S
C1031      C1032   1.412       .  A
C1031      C1038   1.440       .  S
C1032      C1033   1.402       .  A
C1033      C1034   1.400       .  A
C1033      H1036   1.085       .  S
C1034      C1037   1.443       .  S
C1037      N1039   1.157       .  T
C1038      N1040   1.157       .  T
C1041      C1042   1.406       .  A
C1041      C1046   1.419       .  A
C1042      C1043   1.404       .  A
C1042      H1047   1.084       .  S
C1043      C1044   1.410       .  A
C1043      C1050   1.439       .  S
C1044      C1045   1.403       .  A
C1045      C1046   1.399       .  A
C1045      H1048   1.085       .  S
C1046      C1049   1.445       .  S
C1049      N1051   1.158       .  T
C1050      N1052   1.157       .  T
C1053      C1054   1.406       .  A
C1053      C1058   1.415       .  A
C1054      C1055   1.401       .  A
C1054      H1059   1.085       .  S
C1055      C1056   1.410       .  A
C1055      C1062   1.443       .  S
C1056      C1057   1.401       .  A
C1057      C1058   1.398       .  A
C1057      H1060   1.082       .  S
C1058      C1061   1.445       .  S
C1061      N1063   1.157       .  T
C1062      N1064   1.157       .  T
C1065      C1066   1.405       .  A
C1065      C1070   1.408       .  A
C1066      C1067   1.404       .  A
C1066      H1071   1.083       .  S
C1067      C1068   1.412       .  A
C1067      C1074   1.441       .  S
C1068      C1069   1.402       .  A
C1069      C1070   1.398       .  A
C1069      H1072   1.074       .  S
C1070      C1073   1.439       .  S
C1073      N1075   1.155       .  T
C1074      N1076   1.157       .  T
C1077      C1078   1.401       .  A
C1077      C1082   1.413       .  A
C1078      C1079   1.397       .  A
C1078      H1083   1.085       .  S
C1079      C1080   1.412       .  A
C1079      C1086   1.441       .  S
C1080      C1081   1.405       .  A
C1081      C1082   1.400       .  A
C1081      H1084   1.085       .  S
C1082      C1085   1.444       .  S
C1085      N1087   1.157       .  T
C1086      N1088   1.157       .  T
C1089      C1090   1.405       .  A
C1089      C1094   1.411       .  A
C1090      C1091   1.399       .  A
C1090      H1095   1.085       .  S
C1091      C1092   1.411       .  A
C1091      C1098   1.445       .  S
C1092      C1093   1.401       .  A
C1093      C1094   1.398       .  A
C1093      H1096   1.085       .  S
C1094      C1097   1.441       .  S
C1097      N1099   1.157       .  T
C1098      N1100   1.157       .  T
C1101      C1102   1.405       .  A
C1101      C1106   1.414       .  A
C1102      C1103   1.405       .  A
C1102      H1107   1.085       .  S
C1103      C1104   1.411       .  A
C1103      C1110   1.441       .  S
C1104      C1105   1.401       .  A
C1105      C1106   1.396       .  A
C1105      H1108   1.082       .  S
C1106      C1109   1.445       .  S
C1109      N1111   1.157       .  T
C1110      N1112   1.157       .  T
C1113      C1114   1.408       .  A
C1113      C1118   1.416       .  A
C1114      C1115   1.401       .  A
C1114      H1119   1.086       .  S
C1115      C1116   1.410       .  A
C1115      C1122   1.444       .  S
C1116      C1117   1.397       .  A
C1117      C1118   1.396       .  A
C1117      H1120   1.081       .  S
C1118      C1121   1.443       .  S
C1121      N1123   1.157       .  T
C1122      N1124   1.157       .  T
C1125      C1126   1.400       .  A
C1125      C1130   1.412       .  A
C1126      C1127   1.395       .  A
C1126      H1131   1.085       .  S
C1127      C1128   1.414       .  A
C1127      C1134   1.442       .  S
C1128      C1129   1.403       .  A
C1129      C1130   1.401       .  A
C1129      H1132   1.084       .  S
C1130      C1133   1.443       .  S
C1133      N1135   1.157       .  T
C1134      N1136   1.157       .  T
C1137      C1138   1.404       .  A
C1137      C1142   1.409       .  A
C1138      C1139   1.399       .  A
C1138      H1143   1.084       .  S
C1139      C1140   1.413       .  A
C1139      C1146   1.444       .  S
C1140      C1141   1.403       .  A
C1141      C1142   1.397       .  A
C1141      H1144   1.085       .  S
C1142      C1145   1.442       .  S
C1145      N1147   1.157       .  T
C1146      N1148   1.157       .  T
C1149      C1150   1.406       .  A
C1149      C1154   1.409       .  A
C1150      C1151   1.404       .  A
C1150      H1155   1.085       .  S
C1151      C1152   1.414       .  A
C1151      C1158   1.444       .  S
C1152      C1153   1.404       .  A
C1153      C1154   1.396       .  A
C1153      H1156   1.085       .  S
C1154      C1157   1.439       .  S
C1157      N1159   1.156       .  T
C1158      N1160   1.157       .  T
C1161      C1162   1.403       .  A
C1161      C1166   1.407       .  A
C1162      C1163   1.395       .  A
C1162      H1167   1.084       .  S
C1163      C1164   1.413       .  A
C1163      C1170   1.445       .  S
C1164      C1165   1.407       .  A
C1165      C1166   1.402       .  A
C1165      H1168   1.085       .  S
C1166      C1169   1.441       .  S
C1169      N1171   1.157       .  T
C1170      N1172   1.157       .  T
C1173      C1174   1.403       .  A
C1173      C1178   1.411       .  A
C1174      C1175   1.399       .  A
C1174      H1179   1.084       .  S
C1175      C1176   1.413       .  A
C1175      C1182   1.445       .  S
C1176      C1177   1.405       .  A
C1177      C1178   1.402       .  A
C1177      H1180   1.085       .  S
C1178      C1181   1.442       .  S
C1181      N1183   1.157       .  T
C1182      N1184   1.157       .  T
C1185      C1186   1.407       .  A
C1185      C1190   1.410       .  A
C1186      C1187   1.407       .  A
C1186      H1191   1.084       .  S
C1187      C1188   1.416       .  A
C1187      C1194   1.443       .  S
C1188      C1189   1.404       .  A
C1189      C1190   1.394       .  A
C1189      H1192   1.085       .  S
C1190      C1193   1.442       .  S
C1193      N1195   1.157       .  T
C1194      N1196   1.157       .  T
C1197      C1198   1.405       .  A
C1197      C1202   1.409       .  A
C1198      C1199   1.399       .  A
C1198      H1203   1.084       .  S
C1199      C1200   1.412       .  A
C1199      C1206   1.444       .  S
C1200      C1201   1.403       .  A
C1201      C1202   1.397       .  A
C1201      H1204   1.085       .  S
C1202      C1205   1.440       .  S
C1205      N1207   1.156       .  T
C1206      N1208   1.157       .  T
C1209      C1210   1.401       .  A
C1209      C1214   1.412       .  A
C1210      C1211   1.397       .  A
C1210      H1215   1.085       .  S
C1211      C1212   1.414       .  A
C1211      C1218   1.443       .  S
C1212      C1213   1.401       .  A
C1213      C1214   1.403       .  A
C1213      H1216   1.084       .  S
C1214      C1217   1.438       .  S
C1217      N1219   1.156       .  T
C1218      N1220   1.157   1_545  T
C1221      C1222   1.400       .  A
C1221      C1226   1.414       .  A
C1222      C1223   1.401       .  A
C1222      H1227   1.084       .  S
C1223      C1224   1.414       .  A
C1223      C1230   1.444       .  S
C1224      C1225   1.399       .  A
C1225      C1226   1.395       .  A
C1225      H1228   1.085       .  S
C1226      C1229   1.444       .  S
C1229      N1231   1.157   1_565  T
C1230      N1232   1.157       .  T
C1233      C1234   1.405       .  A
C1233      C1238   1.412       .  A
C1234      C1235   1.400       .  A
C1234      H1239   1.085       .  S
C1235      C1236   1.408       .  A
C1235      C1242   1.439       .  S
C1236      C1237   1.407       .  A
C1237      C1238   1.402       .  A
C1237      H1240   1.085       .  S
C1238      C1241   1.444       .  S
C1241      N1243   1.157       .  T
C1242      N1244   1.157       .  T
C1245      C1246   1.402       .  A
C1245      C1250   1.415       .  A
C1246      C1247   1.397       .  A
C1246      H1251   1.085       .  S
C1247      C1248   1.411       .  A
C1247      C1254   1.441       .  S
C1248      C1249   1.405       .  A
C1249      C1250   1.403       .  A
C1249      H1252   1.085       .  S
C1250      C1253   1.444       .  S
C1253      N1255   1.157       .  T
C1254      N1256   1.157       .  T
C1257      C1258   1.405       .  A
C1257      C1262   1.418       .  A
C1258      C1259   1.399       .  A
C1258      H1263   1.085       .  S
C1259      C1260   1.411       .  A
C1259      C1266   1.443       .  S
C1260      C1261   1.402       .  A
C1261      C1262   1.403       .  A
C1261      H1264   1.082       .  S
C1262      C1265   1.444       .  S
C1265      N1267   1.157       .  T
C1266      N1268   1.157       .  T
C1269      C1270   1.402       .  A
C1269      C1274   1.410       .  A
C1270      C1271   1.400       .  A
C1270      H1275   1.082       .  S
C1271      C1272   1.412       .  A
C1271      C1278   1.440       .  S
C1272      C1273   1.405       .  A
C1273      C1274   1.402       .  A
C1273      H1276   1.085       .  S
C1274      C1277   1.442       .  S
C1277      N1279   1.157       .  T
C1278      N1280   1.156       .  T
C1281      C1282   1.406       .  A
C1281      C1286   1.412       .  A
C1282      C1283   1.406       .  A
C1282      H1287   1.083       .  S
C1283      C1284   1.414       .  A
C1283      C1290   1.444       .  S
C1284      C1285   1.403       .  A
C1285      C1286   1.394       .  A
C1285      H1288   1.085       .  S
C1286      C1289   1.443       .  S
C1289      N1291   1.157       .  T
C1290      N1292   1.157       .  T
C1293      C1294   1.408       .  A
C1293      C1298   1.411       .  A
C1294      C1295   1.403       .  A
C1294      H1299   1.085       .  S
C1295      C1296   1.410       .  A
C1295      C1302   1.444       .  S
C1296      C1297   1.400       .  A
C1297      C1298   1.398       .  A
C1297      H1300   1.085       .  S
C1298      C1301   1.438       .  S
C1301      N1303   1.157       .  T
C1302      N1304   1.157       .  T
C1305      C1306   1.397       .  A
C1305      C1310   1.409       .  A
C1306      C1307   1.398       .  A
C1306      H1311   1.081       .  S
C1307      C1308   1.417       .  A
C1307      C1314   1.443       .  S
C1308      C1309   1.407       .  A
C1309      C1310   1.399       .  A
C1309      H1312   1.085       .  S
C1310      C1313   1.444       .  S
C1313      N1315   1.157       .  T
C1314      N1316   1.157       .  T
C1317      C1318   1.403       .  A
C1317      C1322   1.408       .  A
C1318      C1319   1.401       .  A
C1318      H1323   1.083       .  S
C1319      C1320   1.416       .  A
C1319      C1326   1.443       .  S
C1320      C1321   1.408       .  A
C1321      C1322   1.399       .  A
C1321      H1324   1.085       .  S
C1322      C1325   1.443       .  S
C1325      N1327   1.157       .  T
C1326      N1328   1.157       .  T
C1329      C1330   1.399       .  A
C1329      C1334   1.411       .  A
C1330      C1331   1.395       .  A
C1330      H1335   1.085       .  S
C1331      C1332   1.415       .  A
C1331      C1338   1.442       .  S
C1332      C1333   1.402       .  A
C1333      C1334   1.402       .  A
C1333      H1336   1.084       .  S
C1334      C1337   1.440       .  S
C1337      N1339   1.156       .  T
C1338      N1340   1.157       .  T
C1341      C1342   1.405       .  A
C1341      C1346   1.409       .  A
C1342      C1343   1.398       .  A
C1342      H1347   1.084       .  S
C1343      C1344   1.413       .  A
C1343      C1350   1.445       .  S
C1344      C1345   1.402       .  A
C1345      C1346   1.398       .  A
C1345      H1348   1.085       .  S
C1346      C1349   1.439       .  S
C1349      N1351   1.156       .  T
C1350      N1352   1.157       .  T
C1353      C1354   1.396       .  A
C1353      C1358   1.410       .  A
C1354      C1355   1.400       .  A
C1354      H1359   1.085       .  S
C1355      C1356   1.417       .  A
C1355      C1362   1.436       .  S
C1356      C1357   1.409       .  A
C1357      C1358   1.401       .  A
C1357      H1360   1.084       .  S
C1358      C1361   1.445       .  S
C1361      N1363   1.157       .  T
C1362      N1364   1.156       .  T
C1365      C1366   1.405       .  A
C1365      C1370   1.413       .  A
C1366      C1367   1.404       .  A
C1366      H1371   1.084       .  S
C1367      C1368   1.414       .  A
C1367      C1374   1.444       .  S
C1368      C1369   1.402       .  A
C1369      C1370   1.390       .  A
C1369      H1372   1.086       .  S
C1370      C1373   1.444       .  S
C1373      N1375   1.158       .  T
C1374      N1376   1.157       .  T
C1377      C1378   1.405       .  A
C1377      C1382   1.405       .  A
C1378      C1379   1.402       .  A
C1378      H1383   1.082       .  S
C1379      C1380   1.414       .  A
C1379      C1386   1.443       .  S
C1380      C1381   1.409       .  A
C1381      C1382   1.395       .  A
C1381      H1384   1.085       .  S
C1382      C1385   1.444       .  S
C1385      N1387   1.157       .  T
C1386      N1388   1.157       .  T
C1389      C1390   1.406       .  A
C1389      C1394   1.417       .  A
C1390      C1391   1.400       .  A
C1390      H1395   1.085       .  S
C1391      C1392   1.411       .  A
C1391      C1398   1.443       .  S
C1392      C1393   1.402       .  A
C1393      C1394   1.403       .  A
C1393      H1396   1.081       .  S
C1394      C1397   1.444       .  S
C1397      N1399   1.157       .  T
C1398      N1400   1.157       .  T
C1401      C1402   1.405       .  A
C1401      C1406   1.408       .  A
C1402      C1403   1.397       .  A
C1402      H1407   1.085       .  S
C1403      C1404   1.412       .  A
C1403      C1410   1.445       .  S
C1404      C1405   1.406       .  A
C1405      C1406   1.403       .  A
C1405      H1408   1.085       .  S
C1406      C1409   1.441       .  S
C1409      N1411   1.157       .  T
C1410      N1412   1.157       .  T
C1413      C1414   1.399       .  A
C1413      C1418   1.409       .  A
C1414      C1415   1.395       .  A
C1414      H1419   1.085       .  S
C1415      C1416   1.421       .  A
C1415      C1422   1.446       .  S
C1416      C1417   1.407       .  A
C1417      C1418   1.402       .  A
C1417      H1420   1.084       .  S
C1418      C1421   1.441       .  S
C1421      N1423   1.157       .  T
C1422      N1424   1.158       .  T
C1425      C1426   1.404       .  A
C1425      C1430   1.415       .  A
C1426      C1427   1.398       .  A
C1426      H1431   1.085       .  S
C1427      C1428   1.410       .  A
C1427      C1434   1.442       .  S
C1428      C1429   1.406       .  A
C1429      C1430   1.405       .  A
C1429      H1432   1.085       .  S
C1430      C1433   1.444       .  S
C1433      N1435   1.157       .  T
C1434      N1436   1.157       .  T
C1437      C1438   1.402       .  A
C1437      C1442   1.408       .  A
C1438      C1439   1.398       .  A
C1438      H1443   1.085       .  S
C1439      C1440   1.419       .  A
C1439      C1446   1.444       .  S
C1440      C1441   1.406       .  A
C1441      C1442   1.401       .  A
C1441      H1444   1.084       .  S
C1442      C1445   1.439       .  S
C1445      N1447   1.157       .  T
C1446      N1448   1.157       .  T
C1449      C1450   1.403       .  A
C1449      C1454   1.414       .  A
C1450      C1451   1.403       .  A
C1450      H1455   1.085       .  S
C1451      C1452   1.415       .  A
C1451      C1458   1.443       .  S
C1452      C1453   1.399       .  A
C1453      C1454   1.396       .  A
C1453      H1456   1.085       .  S
C1454      C1457   1.442       .  S
C1457      N1459   1.157       .  T
C1458      N1460   1.157       .  T
C1461      C1462   1.403       .  A
C1461      C1466   1.412       .  A
C1462      C1463   1.399       .  A
C1462      H1467   1.084       .  S
C1463      C1464   1.414       .  A
C1463      C1470   1.444       .  S
C1464      C1465   1.404       .  A
C1465      C1466   1.402       .  A
C1465      H1468   1.085       .  S
C1466      C1469   1.440       .  S
C1469      N1471   1.157       .  T
C1470      N1472   1.157       .  T
C1473      C1474   1.399       .  A
C1473      C1478   1.408       .  A
C1474      C1475   1.393       .  A
C1474      H1479   1.081       .  S
C1475      C1476   1.412       .  A
C1475      C1482   1.440       .  S
C1476      C1477   1.409       .  A
C1477      C1478   1.406       .  A
C1477      H1480   1.085       .  S
C1478      C1481   1.441       .  S
C1481      N1483   1.157       .  T
C1482      N1484   1.155       .  T
C1485      C1486   1.409       .  A
C1485      C1490   1.412       .  A
C1486      C1487   1.405       .  A
C1486      H1491   1.085       .  S
C1487      C1488   1.412       .  A
C1487      C1494   1.443       .  S
C1488      C1489   1.401       .  A
C1489      C1490   1.395       .  A
C1489      H1492   1.086       .  S
C1490      C1493   1.439       .  S
C1493      N1495   1.157       .  T
C1494      N1496   1.157       .  T
C1497      C1498   1.404       .  A
C1497      C1502   1.415       .  A
C1498      C1499   1.400       .  A
C1498      H1503   1.083       .  S
C1499      C1500   1.414       .  A
C1499      C1506   1.445       .  S
C1500      C1501   1.402       .  A
C1501      C1502   1.400       .  A
C1501      H1504   1.085       .  S
C1502      C1505   1.441       .  S
C1505      N1507   1.157       .  T
C1506      N1508   1.157       .  T
C1509      C1510   1.407       .  A
C1509      C1514   1.413       .  A
C1510      C1511   1.404       .  A
C1510      H1515   1.084       .  S
C1511      C1512   1.411       .  A
C1511      C1518   1.444       .  S
C1512      C1513   1.400       .  A
C1513      C1514   1.395       .  A
C1513      H1516   1.086       .  S
C1514      C1517   1.439       .  S
C1517      N1519   1.156       .  T
C1518      N1520   1.157       .  T
C1521      C1522   1.405       .  A
C1521      C1526   1.412       .  A
C1522      C1523   1.403       .  A
C1522      H1527   1.085       .  S
C1523      C1524   1.410       .  A
C1523      C1530   1.441       .  S
C1524      C1525   1.406       .  A
C1525      C1526   1.399       .  A
C1525      H1528   1.085       .  S
C1526      C1529   1.445       .  S
C1529      N1531   1.157       .  T
C1530      N1532   1.157       .  T
C1533      C1534   1.403       .  A
C1533      C1538   1.413       .  A
C1534      C1535   1.398       .  A
C1534      H1539   1.085       .  S
C1535      C1536   1.409       .  A
C1535      C1542   1.442       .  S
C1536      C1537   1.399       .  A
C1537      C1538   1.396       .  A
C1537      H1540   1.083       .  S
C1538      C1541   1.442       .  S
C1541      N1543   1.156       .  T
C1542      N1544   1.157       .  T
C1545      C1546   1.401       .  A
C1545      C1550   1.407       .  A
C1546      C1547   1.393       .  A
C1546      H1551   1.084       .  S
C1547      C1548   1.413       .  A
C1547      C1554   1.444       .  S
C1548      C1549   1.408       .  A
C1549      C1550   1.402       .  A
C1549      H1552   1.085       .  S
C1550      C1553   1.442       .  S
C1553      N1555   1.157       .  T
C1554      N1556   1.157       .  T
C1557      C1558   1.404       .  A
C1557      C1562   1.409       .  A
C1558      C1559   1.403       .  A
C1558      H1563   1.084       .  S
C1559      C1560   1.417       .  A
C1559      C1566   1.444       .  S
C1560      C1561   1.406       .  A
C1561      C1562   1.399       .  A
C1561      H1564   1.085       .  S
C1562      C1565   1.442       .  S
C1565      N1567   1.157       .  T
C1566      N1568   1.157       .  T
C1569      C1570   1.404       .  A
C1569      C1574   1.408       .  A
C1570      C1571   1.404       .  A
C1570      H1575   1.083       .  S
C1571      C1572   1.414       .  A
C1571      C1578   1.443       .  S
C1572      C1573   1.407       .  A
C1573      C1574   1.392       .  A
C1573      H1576   1.085       .  S
C1574      C1577   1.443       .  S
C1577      N1579   1.157       .  T
C1578      N1580   1.157       .  T
C1581      C1582   1.401       .  A
C1581      C1586   1.412       .  A
C1582      C1583   1.400       .  A
C1582      H1587   1.081       .  S
C1583      C1584   1.414       .  A
C1583      C1590   1.444       .  S
C1584      C1585   1.405       .  A
C1585      C1586   1.403       .  A
C1585      H1588   1.085       .  S
C1586      C1589   1.443       .  S
C1589      N1591   1.157       .  T
C1590      N1592   1.157       .  T
C1593      C1594   1.405       .  A
C1593      C1598   1.411       .  A
C1594      C1595   1.403       .  A
C1594      H1599   1.085       .  S
C1595      C1596   1.415       .  A
C1595      C1602   1.444       .  S
C1596      C1597   1.404       .  A
C1597      C1598   1.400       .  A
C1597      H1600   1.084       .  S
C1598      C1601   1.440       .  S
C1601      N1603   1.157       .  T
C1602      N1604   1.157       .  T
C1605      C1606   1.405       .  A
C1605      C1610   1.419       .  A
C1606      C1607   1.399       .  A
C1606      H1611   1.084       .  S
C1607      C1608   1.408       .  A
C1607      C1614   1.441       .  S
C1608      C1609   1.400       .  A
C1609      C1610   1.397       .  A
C1609      H1612   1.085       .  S
C1610      C1613   1.445       .  S
C1613      N1615   1.157       .  T
C1614      N1616   1.157       .  T
C1617      C1618   1.405       .  A
C1617      C1622   1.411       .  A
C1618      C1619   1.402       .  A
C1618      H1623   1.085       .  S
C1619      C1620   1.415       .  A
C1619      C1626   1.443       .  S
C1620      C1621   1.403       .  A
C1621      C1622   1.398       .  A
C1621      H1624   1.085       .  S
C1622      C1625   1.439       .  S
C1625      N1627   1.157       .  T
C1626      N1628   1.157       .  T
C1629      C1630   1.402       .  A
C1629      C1634   1.412       .  A
C1630      C1631   1.395       .  A
C1630      H1635   1.085       .  S
C1631      C1632   1.410       .  A
C1631      C1638   1.438       .  S
C1632      C1633   1.409       .  A
C1633      C1634   1.405       .  A
C1633      H1636   1.084       .  S
C1634      C1637   1.444       .  S
C1637      N1639   1.157       .  T
C1638      N1640   1.156       .  T
C1641      C1642   1.405       .  A
C1641      C1646   1.410       .  A
C1642      C1643   1.402       .  A
C1642      H1647   1.085       .  S
C1643      C1644   1.414       .  A
C1643      C1650   1.444       .  S
C1644      C1645   1.403       .  A
C1645      C1646   1.397       .  A
C1645      H1648   1.085       .  S
C1646      C1649   1.439       .  S
C1649      N1651   1.157       .  T
C1650      N1652   1.157       .  T
C1653      C1654   1.409       .  A
C1653      C1658   1.410       .  A
C1654      C1655   1.406       .  A
C1654      H1659   1.084       .  S
C1655      C1656   1.412       .  A
C1655      C1662   1.443       .  S
C1656      C1657   1.403       .  A
C1657      C1658   1.395       .  A
C1657      H1660   1.086       .  S
C1658      C1661   1.439       .  S
C1661      N1663   1.157       .  T
C1662      N1664   1.157       .  T
C1665      C1666   1.406       .  A
C1665      C1670   1.415       .  A
C1666      C1667   1.400       .  A
C1666      H1671   1.084       .  S
C1667      C1668   1.412       .  A
C1667      C1674   1.445       .  S
C1668      C1669   1.399       .  A
C1669      C1670   1.398       .  A
C1669      H1672   1.085       .  S
C1670      C1673   1.440       .  S
C1673      N1675   1.157       .  T
C1674      N1676   1.157       .  T
C1677      C1678   1.403       .  A
C1677      C1682   1.407       .  A
C1678      C1679   1.399       .  A
C1678      H1683   1.081       .  S
C1679      C1680   1.414       .  A
C1679      C1686   1.444       .  S
C1680      C1681   1.409       .  A
C1681      C1682   1.399       .  A
C1681      H1684   1.085       .  S
C1682      C1685   1.442       .  S
C1685      N1687   1.157       .  T
C1686      N1688   1.157       .  T
C1689      C1690   1.399       .  A
C1689      C1694   1.411       .  A
C1690      C1691   1.393       .  A
C1690      H1695   1.082       .  S
C1691      C1692   1.409       .  A
C1691      C1698   1.439       .  S
C1692      C1693   1.405       .  A
C1693      C1694   1.404       .  A
C1693      H1696   1.086       .  S
C1694      C1697   1.441       .  S
C1697      N1699   1.157       .  T
C1698      N1700   1.155       .  T
C1701      C1702   1.402       .  A
C1701      C1706   1.411       .  A
C1702      C1703   1.398       .  A
C1702      H1707   1.085       .  S
C1703      C1704   1.411       .  A
C1703      C1710   1.441       .  S
C1704      C1705   1.406       .  A
C1705      C1706   1.401       .  A
C1705      H1708   1.085       .  S
C1706      C1709   1.444       .  S
C1709      N1711   1.157       .  T
C1710      N1712   1.157       .  T
C1713      C1714   1.407       .  A
C1713      C1718   1.418       .  A
C1714      C1715   1.404       .  A
C1714      H1719   1.083       .  S
C1715      C1716   1.408       .  A
C1715      C1722   1.440       .  S
C1716      C1717   1.403       .  A
C1717      C1718   1.399       .  A
C1717      H1720   1.085       .  S
C1718      C1721   1.444       .  S
C1721      N1723   1.157       .  T
C1722      N1724   1.157       .  T
C1725      C1726   1.406       .  A
C1725      C1730   1.409       .  A
C1726      C1727   1.405       .  A
C1726      H1731   1.084       .  S
C1727      C1728   1.415       .  A
C1727      C1734   1.443       .  S
C1728      C1729   1.404       .  A
C1729      C1730   1.391       .  A
C1729      H1732   1.085       .  S
C1730      C1733   1.442       .  S
C1733      N1735   1.157       .  T
C1734      N1736   1.157       .  T
C1737      C1738   1.403       .  A
C1737      C1742   1.410       .  A
C1738      C1739   1.402       .  A
C1738      H1743   1.085       .  S
C1739      C1740   1.413       .  A
C1739      C1746   1.441       .  S
C1740      C1741   1.403       .  A
C1741      C1742   1.396       .  A
C1741      H1744   1.085       .  S
C1742      C1745   1.442       .  S
C1745      N1747   1.157   1_545  T
C1746      N1748   1.156       .  T
C1749      C1750   1.409       .  A
C1749      C1754   1.411       .  A
C1750      C1751   1.401       .  A
C1750      H1755   1.085       .  S
C1751      C1752   1.410       .  A
C1751      C1758   1.445       .  S
C1752      C1753   1.401       .  A
C1753      C1754   1.400       .  A
C1753      H1756   1.085       .  S
C1754      C1757   1.438       .  S
C1757      N1759   1.157       .  T
C1758      N1760   1.157       .  T
C1761      C1762   1.399       .  A
C1761      C1766   1.412       .  A
C1762      C1763   1.401       .  A
C1762      H1767   1.083       .  S
C1763      C1764   1.421       .  A
C1763      C1770   1.445       .  S
C1764      C1765   1.405       .  A
C1765      C1766   1.403       .  A
C1765      H1768   1.084       .  S
C1766      C1769   1.442       .  S
C1769      N1771   1.157       .  T
C1770      N1772   1.158       .  T
C1773      C1774   1.404       .  A
C1773      C1778   1.413       .  A
C1774      C1775   1.404       .  A
C1774      H1779   1.084       .  S
C1775      C1776   1.416       .  A
C1775      C1782   1.444       .  S
C1776      C1777   1.402       .  A
C1777      C1778   1.393       .  A
C1777      H1780   1.085       .  S
C1778      C1781   1.445       .  S
C1781      N1783   1.157       .  T
C1782      N1784   1.157       .  T
C1785      C1786   1.404       .  A
C1785      C1790   1.412       .  A
C1786      C1787   1.402       .  A
C1786      H1791   1.083       .  S
C1787      C1788   1.411       .  A
C1787      C1794   1.443       .  S
C1788      C1789   1.403       .  A
C1789      C1790   1.400       .  A
C1789      H1792   1.085       .  S
C1790      C1793   1.443       .  S
C1793      N1795   1.157   1_455  T
C1794      N1796   1.157       .  T
C1797      C1798   1.409       .  A
C1797      C1802   1.415       .  A
C1798      C1799   1.399       .  A
C1798      H1803   1.085       .  S
C1799      C1800   1.409       .  A
C1799      C1806   1.445       .  S
C1800      C1801   1.396       .  A
C1801      C1802   1.400       .  A
C1801      H1804   1.085       .  S
C1802      C1805   1.436       .  S
C1805      N1807   1.157       .  T
C1806      N1808   1.157       .  T
C1809      C1810   1.399       .  A
C1809      C1814   1.408       .  A
C1810      C1811   1.401       .  A
C1810      H1815   1.083       .  S
C1811      C1812   1.416       .  A
C1811      C1818   1.440       .  S
C1812      C1813   1.408       .  A
C1813      C1814   1.397       .  A
C1813      H1816   1.085       .  S
C1814      C1817   1.443       .  S
C1817      N1819   1.157       .  T
C1818      N1820   1.156       .  T
C1821      C1822   1.403       .  A
C1821      C1826   1.411       .  A
C1822      C1823   1.402       .  A
C1822      H1827   1.083       .  S
C1823      C1824   1.414       .  A
C1823      C1830   1.441       .  S
C1824      C1825   1.405       .  A
C1825      C1826   1.394       .  A
C1825      H1828   1.085       .  S
C1826      C1829   1.443       .  S
C1829      N1831   1.157       .  T
C1830      N1832   1.157       .  T
C1833      C1834   1.401       .  A
C1833      C1838   1.408       .  A
C1834      C1835   1.397       .  A
C1834      H1839   1.083       .  S
C1835      C1836   1.415       .  A
C1835      C1842   1.445       .  S
C1836      C1837   1.404       .  A
C1837      C1838   1.399       .  A
C1837      H1840   1.084       .  S
C1838      C1841   1.442       .  S
C1841      N1843   1.157       .  T
C1842      N1844   1.157       .  T
C1845      C1846   1.407       .  A
C1845      C1850   1.410       .  A
C1846      C1847   1.401       .  A
C1846      H1851   1.084       .  S
C1847      C1848   1.412       .  A
C1847      C1854   1.444       .  S
C1848      C1849   1.401       .  A
C1849      C1850   1.397       .  A
C1849      H1852   1.085       .  S
C1850      C1853   1.438       .  S
C1853      N1855   1.156       .  T
C1854      N1856   1.157       .  T
C1857      C1858   1.405       .  A
C1857      C1862   1.415       .  A
C1858      C1859   1.401       .  A
C1858      H1863   1.085       .  S
C1859      C1860   1.410       .  A
C1859      C1866   1.441       .  S
C1860      C1861   1.404       .  A
C1861      C1862   1.403       .  A
C1861      H1864   1.085       .  S
C1862      C1865   1.443       .  S
C1865      N1867   1.157       .  T
C1866      N1868   1.157       .  T
C1869      C1870   1.405       .  A
C1869      C1874   1.410       .  A
C1870      C1871   1.400       .  A
C1870      H1875   1.084       .  S
C1871      C1872   1.413       .  A
C1871      C1878   1.444       .  S
C1872      C1873   1.403       .  A
C1873      C1874   1.397       .  A
C1873      H1876   1.085       .  S
C1874      C1877   1.441       .  S
C1877      N1879   1.157       .  T
C1878      N1880   1.157       .  T
C1881      C1882   1.402       .  A
C1881      C1886   1.412       .  A
C1882      C1883   1.401       .  A
C1882      H1887   1.084       .  S
C1883      C1884   1.413       .  A
C1883      C1890   1.442       .  S
C1884      C1885   1.403       .  A
C1885      C1886   1.399       .  A
C1885      H1888   1.085       .  S
C1886      C1889   1.442       .  S
C1889      N1891   1.157       .  T
C1890      N1892   1.157       .  T
C1893      C1894   1.400       .  A
C1893      C1898   1.413       .  A
C1894      C1895   1.397       .  A
C1894      H1899   1.082       .  S
C1895      C1896   1.412       .  A
C1895      C1902   1.444       .  S
C1896      C1897   1.404       .  A
C1897      C1898   1.403       .  A
C1897      H1900   1.086       .  S
C1898      C1901   1.443       .  S
C1901      N1903   1.157       .  T
C1902      N1904   1.157       .  T
