geometry optimzed in LAMMPS
_audit_creation_date              2020-12-01 
_audit_creation_method            'lammps2cif' 
_symmetry_space_group_name_H-M    'P1' 
_symmetry_Int_Tables_number       1 
_symmetry_cell_setting            triclinic 
loop_ 
_symmetry_equiv_pos_as_xyz 
  x,y,z 
_cell_length_a                    42.02860735 
_cell_length_b                    42.9676138689943 
_cell_length_c                    44.351728935075904 
_cell_angle_alpha                 92.3663065042307 
_cell_angle_beta                  89.92742946905851 
_cell_angle_gamma                 89.85064756123143 
loop_ 
_atom_site_label 
_atom_site_type_symbol 
_atom_site_fract_x 
_atom_site_fract_y 
_atom_site_fract_z 
_atom_site_charge 
C1          C  0.22144982  0.21946111  0.21714918     0.86400
C2          C  0.23850358  0.19901269  0.23962785    -0.53800
C3          C  0.25388425  0.21498699  0.26269281     0.09300
C4          C  0.25031157  0.25094846  0.26093061     0.20300
C5          C  0.19937223  0.24050414  0.23644120    -0.54500
C6          C  0.21387772  0.25704865  0.25950105     0.09400
C7          C  0.24775747  0.24125156  0.20643063    -0.54100
C8          C  0.26286049  0.25771031  0.22911730     0.10000
H9          H  0.23949573  0.17386681  0.23631308     0.14500
H10         H  0.26249214  0.26448286  0.27933395     0.00300
H11         H  0.17413351  0.24243574  0.23165731     0.14800
H12         H  0.25487774  0.24356067  0.18319403     0.14600
C13         C  0.08558967  0.46382695  0.43272355     0.29900
C14         C  0.08637991  0.51682784  0.47014586     0.29900
C15         C  0.10384312  0.49190147  0.42136687    -0.06300
C16         C  0.05225869  0.47858627  0.44003262    -0.07100
C17         C  0.09889055  0.46026364  0.46472329    -0.06900
C18         C  0.10409638  0.51839943  0.44006444    -0.06300
C19         C  0.05264944  0.50580541  0.45938417    -0.07100
C20         C  0.09926577  0.48688723  0.48331963    -0.06900
C21         C  0.11734886  0.54188376  0.42405264    -0.32300
N22         N  0.12533919  0.53034084  0.39606667     0.14200
C23         C  0.11703532  0.49975303  0.39420752    -0.32300
H24         H  0.11860566  0.48476716  0.37404056     0.16100
C25         C  0.02111054  0.51360707  0.46515164    -0.31300
N26         N  0.00188759  0.49266473  0.45019153     0.12900
C27         C  0.02051399  0.47122250  0.43504944    -0.31300
C28         C  0.11193401  0.47895888  0.51055337    -0.31600
N29         N  0.11954048  0.44819710  0.50908558     0.13400
H30         H  0.11594943  0.49473391  0.52980341     0.16000
C31         C  0.11141219  0.43651057  0.48116327    -0.31600
H32         H  0.11421791  0.41247652  0.47335284     0.16000
H33         H  0.01142307  0.45103412  0.42263790     0.16000
H34         H  0.11999028  0.56587452  0.43201567     0.16100
H35         H  0.01253282  0.53262621  0.47959302     0.16000
C36         C  0.21326686  0.76383866  0.68626203     0.86400
C37         C  0.23701888  0.78242920  0.66762464    -0.53800
C38         C  0.25531188  0.76475526  0.64793356     0.09300
C39         C  0.24794444  0.72940961  0.64866854     0.20300
C40         C  0.19390054  0.74496541  0.66277764    -0.54500
C41         C  0.21153617  0.72674872  0.64302591     0.09400
C42         C  0.23415560  0.73976364  0.70152750    -0.54100
C43         C  0.25234419  0.72153861  0.68223050     0.10000
H44         H  0.23972108  0.80742802  0.66945832     0.14500
H45         H  0.26256809  0.71476191  0.63276832     0.00300
H46         H  0.16805963  0.74527625  0.66257963     0.14800
H47         H  0.23495942  0.73790639  0.72587034     0.14600
C48         C  0.46240383  0.08658475  0.42547304     0.29900
C49         C  0.51210874  0.08296378  0.46549959     0.29900
C50         C  0.46019908  0.10722323  0.45461715    -0.06300
C51         C  0.46804680  0.05371854  0.43845319    -0.07100
C52         C  0.49579966  0.09442846  0.41312656    -0.06900
C53         C  0.48526862  0.10573795  0.47465651    -0.06300
C54         C  0.49358707  0.05251783  0.45881152    -0.07100
C55         C  0.52092146  0.09371766  0.43362644    -0.06900
C56         C  0.47641635  0.12276255  0.50040464    -0.32300
N57         N  0.44638203  0.13392838  0.49684205     0.14200
C58         C  0.43642271  0.12453121  0.46875566    -0.32300
H59         H  0.41311884  0.12875585  0.45946967     0.16100
C60         C  0.49631421  0.02243136  0.46806507    -0.31300
N61         N  0.47326210  0.00489553  0.45452256     0.12900
C62         C  0.45624141  0.02330828  0.43595751    -0.31300
C63         C  0.54453156  0.11232317  0.42184921    -0.31600
N64         N  0.53603109  0.12127521  0.39393292     0.13400
H65         H  0.56505383  0.12145298  0.43381714     0.16000
C66         C  0.50624914  0.11030119  0.38846538    -0.31600
H67         H  0.49222728  0.11517605  0.36880013     0.16000
H68         H  0.43790152  0.01463381  0.42082689     0.16000
H69         H  0.49006011  0.12506812  0.52099386     0.16100
H70         H  0.51457211  0.01357032  0.48263554     0.16000
C71         C  0.75896840  0.26099224  0.18098853     0.86400
C72         C  0.77689335  0.28616638  0.19986800    -0.53800
C73         C  0.75772227  0.30641517  0.21617116     0.09300
C74         C  0.72174864  0.29961980  0.21187701     0.20300
C75         C  0.73766506  0.24534885  0.20397853    -0.54500
C76         C  0.71796566  0.26513630  0.22014234     0.09400
C77         C  0.73604402  0.27924143  0.16152644    -0.54100
C78         C  0.71636020  0.29940293  0.17728636     0.10000
H79         H  0.80248814  0.28740637  0.20183522     0.14500
H80         H  0.70594704  0.31595670  0.22493226     0.00300
H81         H  0.73767151  0.22032317  0.20658830     0.14800
H82         H  0.73557539  0.27639116  0.13707914     0.14600
C83         C  0.22819828  0.24189835  0.74479599     0.86400
C84         C  0.21324605  0.26758473  0.72597159    -0.53800
C85         C  0.23490125  0.28658073  0.71292006     0.09300
C86         C  0.26965290  0.27822863  0.72012084     0.20300
C87         C  0.25116871  0.22490772  0.72274244    -0.54500
C88         C  0.27285049  0.24368686  0.70940586     0.09400
C89         C  0.24965052  0.25937775  0.76754051    -0.54100
C90         C  0.27134147  0.27857214  0.75494851     0.10000
H91         H  0.18810747  0.26969662  0.72136899     0.14500
H92         H  0.28684982  0.29415205  0.70990064     0.00300
H93         H  0.24992703  0.19995087  0.71814628     0.14800
H94         H  0.24780683  0.25645274  0.79167653     0.14600
C95         C  0.88475792  0.51062876  0.48022063     0.29900
C96         C  0.88308390  0.47278117  0.42844380     0.29900
C97         C  0.86760126  0.52356555  0.45298755    -0.06300
C98         C  0.91796061  0.50213318  0.46615890    -0.07100
C99         C  0.87031361  0.47814016  0.48299281    -0.06900
C100        C  0.86669035  0.50454045  0.42718906    -0.06300
C101        C  0.91713751  0.48257975  0.43946218    -0.07100
C102        C  0.86950183  0.45917543  0.45714821    -0.06900
C103        C  0.85351354  0.52154283  0.40474896    -0.32300
N104        N  0.84619383  0.55041406  0.41632120     0.14200
C105        C  0.85508617  0.55202856  0.44577956    -0.32300
H106        H  0.85302033  0.57245355  0.46076839     0.16100
C107        C  0.94854855  0.47708768  0.43111957    -0.31300
N108        N  0.96805888  0.49252473  0.45119594     0.12900
C109        C  0.94975377  0.50775236  0.47250134    -0.31300
C110        C  0.85694817  0.43100353  0.46496074    -0.31600
N111        N  0.84984304  0.43254362  0.49490592     0.13400
H112        H  0.85380159  0.41075342  0.44996165     0.16000
C113        C  0.85816676  0.46130294  0.50608150    -0.31600
H114        H  0.85535385  0.46965579  0.52926638     0.16000
H115        H  0.95912712  0.52137508  0.49142565     0.16000
H116        H  0.85068523  0.51383433  0.38137112     0.16100
H117        H  0.95679569  0.46296984  0.41198388     0.16000
C118        C  0.73510960  0.78221450  0.20032724     0.86400
C119        C  0.71597482  0.80549687  0.22037817    -0.53800
C120        C  0.69750079  0.79207604  0.24157152     0.09300
C121        C  0.69986692  0.75634449  0.24077501     0.20300
C122        C  0.75384481  0.76256299  0.22250146    -0.54500
C123        C  0.73549659  0.74902504  0.24374061     0.09400
C124        C  0.70983528  0.75944489  0.18697296    -0.54100
C125        C  0.69147186  0.74578173  0.20825352     0.10000
H126        H  0.71681339  0.83048582  0.21767483     0.14500
H127        H  0.68493357  0.74547246  0.25800026     0.00300
H128        H  0.77951746  0.75982160  0.22144010     0.14800
H129        H  0.70724908  0.75325805  0.16323652     0.14600
C130        C  0.74570126  0.18829514  0.69887560     0.86400
C131        C  0.72536020  0.16646860  0.67864474    -0.53800
C132        C  0.70414380  0.18125707  0.66072499     0.09300
C133        C  0.70522431  0.21711405  0.66504183     0.20300
C134        C  0.76126018  0.21040277  0.67664226    -0.54500
C135        C  0.74011921  0.22584579  0.65917260     0.09400
C136        C  0.72169340  0.20882420  0.71662738    -0.54100
C137        C  0.70060631  0.22424677  0.69911961     0.10000
H138        H  0.72758338  0.14131307  0.67884445     0.14500
H139        H  0.68827316  0.22963050  0.65080354     0.00300
H140        H  0.78658963  0.21353039  0.67411460     0.14800
H141        H  0.72188524  0.21119226  0.74109216     0.14600
C142        C  0.45939414  0.89054761  0.48130302     0.29900
C143        C  0.51092516  0.89292546  0.44305470     0.29900
C144        C  0.45874532  0.86815708  0.45311834    -0.06300
C145        C  0.46585677  0.92271694  0.46732505    -0.07100
C146        C  0.49230504  0.88205086  0.49501300    -0.06900
C147        C  0.48468609  0.86983228  0.43398282    -0.06300
C148        C  0.49229349  0.92366113  0.44803506    -0.07100
C149        C  0.51849569  0.88431828  0.47574172    -0.06900
C150        C  0.47958085  0.84957785  0.40971176    -0.32300
N151        N  0.45107216  0.83541845  0.41323223     0.14200
C152        C  0.43847292  0.84610215  0.43999639    -0.32300
H153        H  0.41562151  0.83913326  0.44856308     0.16100
C154        C  0.49677591  0.95433998  0.44097090    -0.31300
N155        N  0.47323067  0.97193471  0.45373878     0.12900
C156        C  0.45448323  0.95324256  0.47046053    -0.31300
C157        C  0.54409858  0.87046798  0.48949794    -0.31600
N158        N  0.53416639  0.85771773  0.51531987     0.13400
H159        H  0.56796917  0.86825349  0.48060579     0.16000
C160        C  0.50259751  0.86400709  0.51851645    -0.31600
H161        H  0.48773657  0.85355184  0.53521586     0.16000
H162        H  0.43532963  0.96142714  0.48505004     0.16000
H163        H  0.49531558  0.84601753  0.39054647     0.16100
H164        H  0.51682569  0.96386722  0.42915684     0.16000
C165        C  0.24139252  0.74327467  0.16355003     0.86400
C166        C  0.22081485  0.72207382  0.18265125    -0.53800
C167        C  0.23738299  0.69896913  0.19589868     0.09300
C168        C  0.27312774  0.69899342  0.18881592     0.20300
C169        C  0.26762453  0.75518524  0.18550596    -0.54500
C170        C  0.28400465  0.73194550  0.19902134     0.09400
C171        C  0.25892651  0.72114491  0.14113966    -0.54100
C172        C  0.27528021  0.69777954  0.15415331     0.10000
H173        H  0.19535432  0.72534247  0.18567836     0.14500
H174        H  0.28646571  0.68004423  0.19947632     0.00300
H175        H  0.27207875  0.77944681  0.19141890     0.14800
H176        H  0.25835224  0.72383861  0.11690191     0.14600
C177        C  0.76051322  0.72350844  0.72669601     0.86400
C178        C  0.77963331  0.69970464  0.70723353    -0.53800
C179        C  0.76167567  0.67816914  0.69144473     0.09300
C180        C  0.72534061  0.68278890  0.69637808     0.20300
C181        C  0.73748417  0.73794577  0.70433583    -0.54500
C182        C  0.71850819  0.71705980  0.68861120     0.09400
C183        C  0.73945576  0.70373002  0.74649896    -0.54100
C184        C  0.72068904  0.68265980  0.73103695     0.10000
H185        H  0.80519098  0.70008453  0.70477225     0.14500
H186        H  0.71030920  0.66547659  0.68384724     0.00300
H187        H  0.73629431  0.76289830  0.70155041     0.14800
H188        H  0.73919001  0.70657927  0.77095065     0.14600
C189        C  0.51283069  0.46080097  0.04659427     0.29900
C190        C  0.46256053  0.50155317  0.04602495     0.29900
C191        C  0.51457897  0.48911229  0.06914660    -0.06300
C192        C  0.50642090  0.47628948  0.01623473    -0.07100
C193        C  0.47992898  0.44699380  0.05504871    -0.06900
C194        C  0.48906962  0.50970861  0.06882884    -0.06300
C195        C  0.48085599  0.49693503  0.01636049    -0.07100
C196        C  0.45407095  0.46803633  0.05453341    -0.06900
C197        C  0.49529324  0.53336989  0.08990200    -0.32300
N198        N  0.52406124  0.52807613  0.10263476     0.14200
C199        C  0.53571797  0.50081654  0.09054396    -0.32300
H200        H  0.55815328  0.49059216  0.09676596     0.16100
C201        C  0.47736079  0.50736388  0.98761572    -0.31300
N202        N  0.50030534  0.49409909  0.96980804     0.12900
C203        C  0.51795716  0.47466172  0.98678635    -0.31300
C204        C  0.43233747  0.45822199  0.07570849    -0.31600
N205        N  0.44268440  0.43174246  0.08789901     0.13400
H206        H  0.41157187  0.47097865  0.08360863     0.16000
C207        C  0.47208316  0.42566018  0.07666571    -0.31600
H208        H  0.48795965  0.40892125  0.08626316     0.16000
H209        H  0.53645289  0.45922742  0.97802481     0.16000
H210        H  0.48062112  0.55366428  0.09477656     0.16100
H211        H  0.45842862  0.52210056  0.97976754     0.16000
C212        C  0.51414117  0.51552289  0.85700530     0.29900
C213        C  0.46402474  0.47486588  0.86122707     0.29900
C214        C  0.51749297  0.48394215  0.83986057    -0.06300
C215        C  0.50660219  0.50495698  0.88970103    -0.07100
C216        C  0.48131119  0.52735075  0.84662723    -0.06900
C217        C  0.49229010  0.46370013  0.84194429    -0.06300
C218        C  0.48051516  0.48423354  0.89156422    -0.07100
C219        C  0.45612930  0.50687333  0.84881696    -0.06900
C220        C  0.50070287  0.43628484  0.82683363    -0.32300
N221        N  0.53049264  0.43936504  0.81551165     0.14200
C222        C  0.54103180  0.46844364  0.82349409    -0.32300
H223        H  0.56423962  0.47757980  0.81816877     0.16100
C224        C  0.47613138  0.47849526  0.92168269    -0.31300
N225        N  0.49912512  0.49327852  0.93796536     0.12900
C226        C  0.51758454  0.50990678  0.91921352    -0.31300
C227        C  0.43012314  0.52037603  0.83545044    -0.31600
N228        N  0.43880698  0.54828185  0.82460510     0.13400
H229        H  0.40707001  0.50967533  0.83226375     0.16000
C230        C  0.47001220  0.55284469  0.83175295    -0.31600
H231        H  0.48394907  0.57278363  0.82573322     0.16000
H232        H  0.53670202  0.52491409  0.92692809     0.16000
H233        H  0.48664135  0.41521862  0.82531288     0.16100
H234        H  0.45709046  0.46582103  0.93182539     0.16000
C235        C  0.06435347  0.92805224  0.02258091     0.42400
N236        N  0.02960538  0.93831276  0.98900071     0.01300
C237        C  0.02232094  0.06684696  0.90008792    -0.06600
H238        H  0.01084745  0.09274240  0.01443427     0.06800
C239        C  0.90830438  0.02865225  0.01267925    -0.07000
Co240      Co  0.04695416  0.99435895  0.95481973     0.74200
N241        N  0.02052158  0.05065628  0.98778303    -0.26100
Co242      Co  0.98401963  0.04670031  0.95579299     0.74100
C243        C  0.91778058  0.05915229  0.02557641     0.42500
N244        N  0.93518002  0.95311022  0.99168571     0.00900
N245        N  0.94980086  0.04547415  0.98963234     0.01000
N246        N  0.06356991  0.03296551  0.90045105    -0.47000
H247        H  0.09406179  0.97121075  0.01134092     0.06700
N248        N  0.04454167  0.03077354  0.98729801     0.01300
N249        N  0.94776687  0.04112918  0.92368499     0.01000
C250        C  0.91579206  0.04684474  0.88657889     0.42600
N251        N  0.95887568  0.93290352  0.99130076    -0.25600
C252        C  0.06916090  0.95164606  0.90022457    -0.06500
N253        N  0.03731665  0.91782016  0.00919337    -0.46700
N254        N  0.94124795  0.05946800  0.90115620    -0.46900
C255        C  0.05987221  0.92109747  0.88743562     0.42400
N256        N  0.04245835  0.02708502  0.92163508     0.01300
N257        N  0.95723461  0.92918241  0.92545968    -0.25600
N258        N  0.05007162  0.96148942  0.98802788    -0.26100
N259        N  0.93310858  0.94887245  0.92597532     0.00900
H260        H  0.96706169  0.88687310  0.89941908     0.06800
H261        H  0.88718283  0.00329497  0.89843230     0.06800
N262        N  0.01828839  0.04673772  0.92202576    -0.26200
N263        N  0.92949429  0.02218521  0.99062913    -0.25800
N264        N  0.02793450  0.93439138  0.92351699     0.01300
C265        C  0.05636414  0.06417813  0.02282817     0.42700
C266        C  0.95406483  0.91286435  0.01332262    -0.07000
N267        N  0.92787888  0.01751717  0.92487588    -0.25800
H268        H  0.88773901  0.01465340  0.01760214     0.06800
N269        N  0.06654305  0.03808871  0.00771445    -0.47000
H270        H  0.96855677  0.89261171  0.01730672     0.06800
C271        C  0.92135849  0.91507194  0.89072710     0.42500
C272        C  0.07290138  0.95713929  0.00853587    -0.06500
Co273      Co  0.99346631  0.93310330  0.95734171     0.73800
N274        N  0.91396623  0.94800595  0.01293802    -0.46700
C275        C  0.05239470  0.05764727  0.88573023     0.42800
N276        N  0.03423384  0.91188045  0.90309270    -0.46700
Co277      Co  0.93081165  0.98541802  0.95837490     0.73900
C278        C  0.90685837  0.01908200  0.90237631    -0.07000
C279        C  0.02577945  0.07261925  0.00960803    -0.06600
N280        N  0.04809845  0.95782659  0.92243588    -0.26100
N281        N  0.94360895  0.06803833  0.01000996    -0.46900
H282        H  0.00748272  0.08697832  0.89659042     0.06800
C283        C  0.95207197  0.90703179  0.90387864    -0.07000
Cl284      Cl  0.98884633  0.98990116  0.95663047    -0.50000
C285        C  0.92417956  0.92306152  0.02773996     0.42500
H286        H  0.08953671  0.96584460  0.89515683     0.06700
N287        N  0.91103308  0.94120220  0.90572193    -0.46700
C288        C  0.77908803  0.74799838  0.74554913    -0.03400
C289        C  0.81266471  0.74860402  0.74724979    -0.09200
C290        C  0.82826260  0.77128786  0.76522723    -0.16900
C291        C  0.81085418  0.79374606  0.78196155     0.25300
C292        C  0.77761898  0.79330069  0.78084760    -0.18500
C293        C  0.76191153  0.77066532  0.76286120    -0.07400
C294        C  0.82730758  0.81706764  0.80027080    -0.13900
C295        C  0.84253828  0.83571366  0.81533654    -0.13600
C296        C  0.86250684  0.85639093  0.83335123     0.25200
C297        C  0.85109590  0.88535609  0.84432724    -0.19000
C298        C  0.87047009  0.90476390  0.86257970    -0.07500
C299        C  0.90146773  0.89536491  0.87010668    -0.03600
C300        C  0.91289234  0.86652850  0.85844594    -0.08900
C301        C  0.89352076  0.84719752  0.84026654    -0.16500
H302        H  0.82744020  0.73175473  0.73527762     0.11600
H303        H  0.85402093  0.77124656  0.76611335     0.10900
H304        H  0.76382195  0.81044365  0.79385412     0.10900
H305        H  0.73615357  0.77076691  0.76245708     0.11400
H306        H  0.82716116  0.89279643  0.83903909     0.11400
H307        H  0.86106730  0.92691225  0.87110649     0.11400
H308        H  0.93665988  0.85862591  0.86358229     0.11600
H309        H  0.90266183  0.82489961  0.83181320     0.10400
C310        C  0.54108465  0.53728720  0.84789385    -0.03400
C311        C  0.56439246  0.55013528  0.86746522    -0.09200
C312        C  0.58888604  0.56883860  0.85616789    -0.16900
C313        C  0.59028733  0.57491843  0.82527294     0.25300
C314        C  0.56722673  0.56233472  0.80589035    -0.18500
C315        C  0.54326704  0.54368372  0.81692949    -0.07400
C316        C  0.61515684  0.59357029  0.81253260    -0.13900
C317        C  0.63401438  0.60864467  0.79855914    -0.13600
C318        C  0.65511877  0.62714214  0.78074480     0.25200
C319        C  0.67103989  0.61397007  0.75541003    -0.19000
C320        C  0.69175305  0.63211102  0.73852913    -0.07500
C321        C  0.69693236  0.66355975  0.74697942    -0.03600
C322        C  0.68015314  0.67671013  0.77193135    -0.08900
C323        C  0.65946450  0.65868150  0.78860933    -0.16500
H324        H  0.56428521  0.54559649  0.89110152     0.11600
H325        H  0.60678538  0.57836154  0.87146610     0.10900
H326        H  0.56793531  0.56663427  0.78199341     0.10900
H327        H  0.52625908  0.53379015  0.80091410     0.11400
H328        H  0.66768687  0.58962801  0.74888664     0.11400
H329        H  0.70437434  0.62138301  0.71949091     0.11400
H330        H  0.68308061  0.70105673  0.77863744     0.11600
H331        H  0.64702095  0.66933205  0.80781363     0.10400
C332        C  0.22117917  0.76704151  0.14753348    -0.03400
C333        C  0.19855973  0.75591962  0.12624563    -0.09200
C334        C  0.17930369  0.77644399  0.11084491    -0.16900
C335        C  0.18199204  0.80851403  0.11664646     0.25300
C336        C  0.20405684  0.81999526  0.13785692    -0.18500
C337        C  0.22357239  0.79951044  0.15317907    -0.07400
C338        C  0.16195864  0.82960970  0.10095081    -0.13900
C339        C  0.14502526  0.84713774  0.08776740    -0.13600
C340        C  0.12466209  0.86787039  0.07199515     0.25200
C341        C  0.13625680  0.89653085  0.06293663    -0.19000
C342        C  0.11652677  0.91656708  0.04732519    -0.07500
C343        C  0.08500252  0.90802211  0.04050412    -0.03600
C344        C  0.07349346  0.87929867  0.04995429    -0.08900
C345        C  0.09322356  0.85935199  0.06559002    -0.16500
H346        H  0.19587197  0.73112790  0.12149614     0.11600
H347        H  0.16223229  0.76727403  0.09450446     0.10900
H348        H  0.20616658  0.84484587  0.14259538     0.10900
H349        H  0.24001082  0.80956243  0.16942233     0.11400
H350        H  0.16057180  0.90331452  0.06780749     0.11400
H351        H  0.12613258  0.93845978  0.04033231     0.11400
H352        H  0.04930508  0.87212315  0.04504670     0.11600
H353        H  0.08400865  0.83722604  0.07253803     0.10400
C354        C  0.43555899  0.52535008  0.04480749    -0.03400
C355        C  0.40328462  0.51651092  0.04436127    -0.09200
C356        C  0.37937111  0.53866266  0.05002609    -0.16900
C357        C  0.38732200  0.57004724  0.05480335     0.25300
C358        C  0.41879541  0.57955303  0.05082552    -0.18500
C359        C  0.44266003  0.55737415  0.04511439    -0.07400
C360        C  0.36419573  0.59174231  0.06721702    -0.13900
C361        C  0.34669808  0.60938945  0.08111369    -0.13600
C362        C  0.32793516  0.63037046  0.10003278     0.25200
C363        C  0.33974132  0.64095051  0.12814929    -0.19000
C364        C  0.32226471  0.66232897  0.14617376    -0.07500
C365        C  0.29287709  0.67351264  0.13613416    -0.03600
C366        C  0.28078123  0.66208498  0.10824425    -0.08900
C367        C  0.29821542  0.64063531  0.09031949    -0.16500
H368        H  0.39636954  0.49249263  0.04044999     0.11600
H369        H  0.35490202  0.53112931  0.05197019     0.10900
H370        H  0.42515940  0.60391686  0.05367730     0.10900
H371        H  0.46700227  0.56516693  0.04301653     0.11400
H372        H  0.36268975  0.63304019  0.13592447     0.11400
H373        H  0.33220473  0.67084410  0.16745949     0.11400
H374        H  0.25787571  0.66981535  0.10024424     0.11600
H375        H  0.28870347  0.63237615  0.06876874     0.10400
C376        C  0.55284121  0.83753010  0.53384653    -0.03400
C377        C  0.54725314  0.83653177  0.56508537    -0.09200
C378        C  0.56546366  0.81704926  0.58302329    -0.16900
C379        C  0.58938842  0.79796740  0.57005273     0.25300
C380        C  0.59493398  0.79866421  0.53891810    -0.18500
C381        C  0.57690190  0.81826656  0.52098824    -0.07400
C382        C  0.60886137  0.77856584  0.58883531    -0.13900
C383        C  0.62587438  0.76417318  0.60547476    -0.13600
C384        C  0.64728028  0.75057444  0.62705858     0.25200
C385        C  0.66100095  0.72097829  0.62180685    -0.19000
C386        C  0.68346047  0.70946713  0.64214509    -0.07500
C387        C  0.69275616  0.72752406  0.66785906    -0.03600
C388        C  0.67771401  0.75658009  0.67343255    -0.08900
C389        C  0.65541170  0.76795208  0.65324707    -0.16500
H390        H  0.52910353  0.85119344  0.57568127     0.11600
H391        H  0.56098389  0.81701042  0.60707680     0.10900
H392        H  0.61332335  0.78413751  0.52847510     0.10900
H393        H  0.58153236  0.81804395  0.49698300     0.11400
H394        H  0.65486106  0.70709191  0.60173622     0.11400
H395        H  0.69423132  0.68694156  0.63717260     0.11400
H396        H  0.68320722  0.77078411  0.69344627     0.11600
H397        H  0.64483656  0.79067016  0.65789266     0.10400
C398        C  0.43505226  0.81618961  0.39052505    -0.03400
C399        C  0.41102035  0.79519851  0.39839851    -0.09200
C400        C  0.39350870  0.77897679  0.37594697    -0.16900
C401        C  0.39991272  0.78347238  0.34542028     0.25300
C402        C  0.42436488  0.80351089  0.33746567    -0.18500
C403        C  0.44179217  0.81969997  0.35974260    -0.07400
C404        C  0.38049555  0.76926342  0.32195771    -0.13900
C405        C  0.36470992  0.76017382  0.30068496    -0.13600
C406        C  0.34593222  0.75197228  0.27440764     0.25200
C407        C  0.34611054  0.77121635  0.24967515    -0.19000
C408        C  0.32662956  0.76435355  0.22474245    -0.07500
C409        C  0.30672200  0.73807942  0.22422374    -0.03600
C410        C  0.30719719  0.71853670  0.24891836    -0.08900
C411        C  0.32666134  0.72546687  0.27384154    -0.16500
H412        H  0.40547067  0.79165577  0.42184393     0.11600
H413        H  0.37460727  0.76348406  0.38237718     0.10900
H414        H  0.42940810  0.80732152  0.31392861     0.10900
H415        H  0.45963814  0.83596047  0.35270083     0.11400
H416        H  0.36097867  0.79178759  0.24984730     0.11400
H417        H  0.32699392  0.77968537  0.20597889     0.11400
H418        H  0.29168964  0.69850459  0.24953723     0.11600
H419        H  0.32620148  0.71049548  0.29289998     0.10400
C420        C  0.76767133  0.17072767  0.71978511    -0.03400
C421        C  0.80081689  0.17589588  0.72157720    -0.09200
C422        C  0.81974179  0.15906075  0.74106289    -0.16900
C423        C  0.80607506  0.13689639  0.75922958     0.25300
C424        C  0.77323977  0.13190188  0.75820340    -0.18500
C425        C  0.75421257  0.14874125  0.73878934    -0.07400
C426        C  0.82576927  0.11965038  0.77919938    -0.13900
C427        C  0.84240924  0.10583251  0.79630699    -0.13600
C428        C  0.86197102  0.09026722  0.81765829     0.25200
C429        C  0.85444571  0.06006802  0.82586004    -0.19000
C430        C  0.87236027  0.04566769  0.84789295    -0.07500
C431        C  0.89802111  0.06134747  0.86204145    -0.03600
C432        C  0.90592353  0.09135540  0.85310922    -0.08900
C433        C  0.88793017  0.10574426  0.83109227    -0.16500
H434        H  0.81268291  0.19300655  0.70854550     0.11600
H435        H  0.84509605  0.16341441  0.74200502     0.10900
H436        H  0.76231660  0.11499833  0.77241319     0.10900
H437        H  0.72882987  0.14451370  0.73846127     0.11400
H438        H  0.83447223  0.04783557  0.81555854     0.11400
H439        H  0.86584126  0.02240570  0.85398128     0.11400
H440        H  0.92559211  0.10392165  0.86353445     0.11600
H441        H  0.89397184  0.12913054  0.82488051     0.10400
C442        C  0.54823757  0.41527601  0.79934253    -0.03400
C443        C  0.58156825  0.41388585  0.80169277    -0.09200
C444        C  0.59862045  0.38978215  0.78696709    -0.16900
C445        C  0.58264269  0.36681760  0.76963084     0.25300
C446        C  0.54952675  0.36819789  0.76679048    -0.18500
C447        C  0.53240520  0.39226378  0.78156121    -0.07400
C448        C  0.60031387  0.34144940  0.75555464    -0.13900
C449        C  0.61631107  0.32036411  0.74502709    -0.13600
C450        C  0.63684781  0.29566669  0.73383535     0.25200
C451        C  0.62871572  0.27779902  0.70791576    -0.19000
C452        C  0.64912049  0.25417175  0.69690884    -0.07500
C453        C  0.67795980  0.24815207  0.71167260    -0.03600
C454        C  0.68575939  0.26620528  0.73784920    -0.08900
C455        C  0.66531502  0.28971219  0.74883739    -0.16500
H456        H  0.59439367  0.43096853  0.81551283     0.11600
H457        H  0.62424134  0.38883462  0.78941615     0.10900
H458        H  0.53692542  0.35055488  0.75338386     0.10900
H459        H  0.50682052  0.39293654  0.77901996     0.11400
H460        H  0.60668196  0.28217826  0.69617024     0.11400
H461        H  0.64213871  0.24060018  0.67698480     0.11400
H462        H  0.70803867  0.26281712  0.74946237     0.11600
H463        H  0.67191184  0.30350509  0.76885952     0.10400
C464        C  0.90405726  0.90630769  0.04914792    -0.03400
C465        C  0.87456021  0.91910389  0.05823735    -0.09200
C466        C  0.85439359  0.90303461  0.07718433    -0.16900
C467        C  0.86336824  0.87394676  0.08741691     0.25300
C468        C  0.89295771  0.86120396  0.07895504    -0.18500
C469        C  0.91324580  0.87730211  0.05993832    -0.07400
C470        C  0.84187231  0.85723954  0.10624774    -0.13900
C471        C  0.82306606  0.84411259  0.12190232    -0.13600
C472        C  0.80050716  0.82902006  0.14096167     0.25200
C473        C  0.77668454  0.80992626  0.12830940    -0.19000
C474        C  0.75514377  0.79485432  0.14688003    -0.07500
C475        C  0.75715107  0.79860809  0.17860544    -0.03600
C476        C  0.78091515  0.81847520  0.19089017    -0.08900
C477        C  0.80238286  0.83342982  0.17229482    -0.16500
H478        H  0.86685676  0.94145004  0.05042476     0.11600
H479        H  0.83164092  0.91319507  0.08363038     0.10900
H480        H  0.90021113  0.83872319  0.08681557     0.10900
H481        H  0.93580963  0.86686118  0.05343023     0.11400
H482        H  0.77482468  0.80655831  0.10402709     0.11400
H483        H  0.73726275  0.78048161  0.13594339     0.11400
H484        H  0.78302431  0.82217448  0.21511369     0.11600
H485        H  0.82056694  0.84831577  0.18240015     0.10400
C486        C  0.66743512  0.72127834  0.20088996    -0.03400
C487        C  0.66272965  0.69673227  0.22047050    -0.09200
C488        C  0.64142053  0.67272485  0.21299243    -0.16900
C489        C  0.62455097  0.67284872  0.18584547     0.25300
C490        C  0.62851034  0.69750451  0.16651052    -0.18500
C491        C  0.64977256  0.72160217  0.17397963    -0.07400
C492        C  0.60484265  0.64671768  0.17689911    -0.13900
C493        C  0.58992067  0.62432182  0.16778375    -0.13600
C494        C  0.57361052  0.59783125  0.15429167     0.25200
C495        C  0.54066721  0.59473570  0.15761423    -0.19000
C496        C  0.52447841  0.57089617  0.14166954    -0.07500
C497        C  0.54106792  0.54988754  0.12216336    -0.03600
C498        C  0.57437918  0.55235445  0.12007924    -0.08900
C499        C  0.59049177  0.57620992  0.13599001    -0.16500
H500        H  0.67633806  0.69535180  0.24107187     0.11600
H501        H  0.63873985  0.65365349  0.22801189     0.10900
H502        H  0.61558547  0.69782167  0.14539511     0.10900
H503        H  0.65248850  0.74036734  0.15863872     0.11400
H504        H  0.52736873  0.61128232  0.17180339     0.11400
H505        H  0.49892229  0.56930695  0.14403496     0.11400
H506        H  0.58782470  0.53683445  0.10501388     0.11600
H507        H  0.61598592  0.57843070  0.13319087     0.10400
C508        C  0.53818155  0.89068662  0.42013644    -0.03400
C509        C  0.55816248  0.86422688  0.41956252    -0.09200
C510        C  0.58056889  0.85890260  0.39676964    -0.16900
C511        C  0.58234387  0.87886491  0.37283271     0.25300
C512        C  0.56167736  0.90435782  0.37192003    -0.18500
C513        C  0.53948688  0.90997946  0.39513372    -0.07400
C514        C  0.60302695  0.87068398  0.34789776    -0.13900
C515        C  0.61970103  0.85990781  0.32794879    -0.13600
C516        C  0.63877231  0.84366542  0.30539988     0.25200
C517        C  0.66763381  0.85620793  0.29600168    -0.19000
C518        C  0.68666624  0.83960934  0.27500940    -0.07500
C519        C  0.67704719  0.81019927  0.26325063    -0.03600
C520        C  0.64788213  0.79792492  0.27267256    -0.08900
C521        C  0.62890992  0.81454590  0.29363943    -0.16500
H522        H  0.55523059  0.84622748  0.43569134     0.11600
H523        H  0.59531288  0.83831687  0.39700112     0.10900
H524        H  0.56177996  0.91909904  0.35269165     0.10900
H525        H  0.52211500  0.92806573  0.39209742     0.11400
H526        H  0.67560030  0.87861935  0.30515265     0.11400
H527        H  0.70919342  0.84948632  0.26850512     0.11400
H528        H  0.63951775  0.77562799  0.26364676     0.11600
H529        H  0.60661302  0.80460525  0.30080563     0.10400
C530        C  0.77717026  0.65412444  0.67089348    -0.03400
C531        C  0.80723476  0.64188315  0.67829998    -0.09200
C532        C  0.82463934  0.62355707  0.65728921    -0.16900
C533        C  0.81226506  0.61677121  0.62853053     0.25300
C534        C  0.78157997  0.62729953  0.62151054    -0.18500
C535        C  0.76410222  0.64577336  0.64257343    -0.07400
C536        C  0.83130313  0.59971901  0.60606513    -0.13900
C537        C  0.84563976  0.58538574  0.58620469    -0.13600
C538        C  0.85740529  0.56705713  0.56035767     0.25200
C539        C  0.83514171  0.55210315  0.54169128    -0.19000
C540        C  0.84494629  0.53453946  0.51636604    -0.07500
C541        C  0.87749391  0.53095045  0.50872657    -0.03600
C542        C  0.90003356  0.54612471  0.52759603    -0.08900
C543        C  0.88999527  0.56413265  0.55329412    -0.16500
H544        H  0.81775083  0.64715200  0.70019579     0.11600
H545        H  0.84806455  0.61527541  0.66327914     0.10900
H546        H  0.77152151  0.62198221  0.59942846     0.10900
H547        H  0.74114634  0.65474556  0.63612334     0.11400
H548        H  0.80992950  0.55409415  0.54664240     0.11400
H549        H  0.82672892  0.52341684  0.50244680     0.11400
H550        H  0.92511891  0.54436878  0.52276784     0.11600
H551        H  0.90757446  0.57575045  0.56756335     0.10400
C552        C  0.83535639  0.40833199  0.51182249    -0.03400
C553        C  0.81636729  0.38529550  0.49729679    -0.09200
C554        C  0.80140428  0.36255129  0.51393101    -0.16900
C555        C  0.80516707  0.36253805  0.54526262     0.25300
C556        C  0.82420946  0.38511163  0.55988246    -0.18500
C557        C  0.83926172  0.40778541  0.54332493    -0.07400
C558        C  0.79012380  0.33907475  0.56251902    -0.13900
C559        C  0.77922587  0.31949484  0.57821606    -0.13600
C560        C  0.76886539  0.29623078  0.59842804     0.25200
C561        C  0.78701474  0.29056835  0.62400295    -0.19000
C562        C  0.77765058  0.26778527  0.64366885    -0.07500
C563        C  0.75005639  0.24998103  0.63791558    -0.03600
C564        C  0.73185606  0.25593410  0.61213952    -0.08900
C565        C  0.74117996  0.27899831  0.59257029    -0.16500
H566        H  0.81250905  0.38517361  0.47318820     0.11600
H567        H  0.78679178  0.34509540  0.50238267     0.10900
H568        H  0.82751533  0.38513159  0.58411505     0.10900
H569        H  0.85412643  0.42471075  0.55522701     0.11400
H570        H  0.80841518  0.30387435  0.62882522     0.11400
H571        H  0.79185492  0.26456656  0.66363048     0.11400
H572        H  0.71076943  0.24247992  0.60669735     0.11600
H573        H  0.72698576  0.28317065  0.57275820     0.10400
C574        C  0.74842840  0.72805308  0.26655113    -0.03400
C575        C  0.77441521  0.70834313  0.25953001    -0.09200
C576        C  0.78574807  0.68777191  0.28063560    -0.16900
C577        C  0.77130872  0.68662693  0.30900416     0.25300
C578        C  0.74555342  0.70622596  0.31627182    -0.18500
C579        C  0.73419046  0.72685749  0.29519778    -0.07400
C580        C  0.78278842  0.66504136  0.33041535    -0.13900
C581        C  0.79289406  0.64613493  0.34730873    -0.13600
C582        C  0.80541568  0.62230282  0.36579696     0.25200
C583        C  0.79742845  0.59118030  0.35932820    -0.19000
C584        C  0.81063736  0.56766492  0.37614683    -0.07500
C585        C  0.83200178  0.57495083  0.39974499    -0.03600
C586        C  0.83954948  0.60635475  0.40645958    -0.08900
C587        C  0.82637143  0.62990559  0.38948055    -0.16500
H588        H  0.78555447  0.70828641  0.23750893     0.11600
H589        H  0.80560391  0.67257330  0.27473439     0.10900
H590        H  0.73424109  0.70554763  0.33820199     0.10900
H591        H  0.71448916  0.74203988  0.30147780     0.11400
H592        H  0.78121027  0.58505111  0.34107211     0.11400
H593        H  0.80404731  0.54374363  0.37078999     0.11400
H594        H  0.85615910  0.61260141  0.42431128     0.11600
H595        H  0.83281520  0.65395038  0.39456315     0.10400
C596        C  0.20579061  0.21944178  0.76002650    -0.03400
C597        C  0.21910390  0.19434966  0.77526790    -0.09200
C598        C  0.19971891  0.17255793  0.78879948    -0.16900
C599        C  0.16665354  0.17562131  0.78768209     0.25300
C600        C  0.15303159  0.20075450  0.77337007    -0.18500
C601        C  0.17233982  0.22256042  0.75972940    -0.07400
C602        C  0.14666136  0.15336741  0.80176629    -0.13900
C603        C  0.12983401  0.13530268  0.81429959    -0.13600
C604        C  0.10991552  0.11466662  0.83056043     0.25200
C605        C  0.07753356  0.12137373  0.83437216    -0.19000
C606        C  0.05854788  0.10240594  0.85179759    -0.07500
C607        C  0.07180240  0.07652639  0.86563227    -0.03600
C608        C  0.10417916  0.06951515  0.86103850    -0.08900
C609        C  0.12314086  0.08856227  0.84367403    -0.16500
H610        H  0.24467063  0.19147716  0.77640584     0.11600
H611        H  0.21053793  0.15333247  0.80013051     0.10900
H612        H  0.12742534  0.20355273  0.77280517     0.10900
H613        H  0.16052975  0.24169114  0.74941814     0.11400
H614        H  0.06708165  0.14152947  0.82427574     0.11400
H615        H  0.03362103  0.10824313  0.85465974     0.11400
H616        H  0.11501312  0.04972096  0.87139618     0.11600
H617        H  0.14821098  0.08321798  0.84088267     0.10400
C618        C  0.29332051  0.29856641  0.77349647    -0.03400
C619        C  0.28396844  0.31038836  0.80229080    -0.09200
C620        C  0.30429207  0.32956405  0.81960428    -0.16900
C621        C  0.33422099  0.33726029  0.80844501     0.25300
C622        C  0.34385461  0.32556218  0.77991976    -0.18500
C623        C  0.32356513  0.30629683  0.76256094    -0.07400
C624        C  0.35434715  0.35856182  0.82541219    -0.13900
C625        C  0.37145928  0.37814646  0.83684593    -0.13600
C626        C  0.39257257  0.40335127  0.84499546     0.25200
C627        C  0.40118186  0.42365761  0.82274995    -0.19000
C628        C  0.42324585  0.44701540  0.82901332    -0.07500
C629        C  0.43696590  0.45127170  0.85793290    -0.03600
C630        C  0.42832032  0.43036161  0.88019242    -0.08900
C631        C  0.40598519  0.40675485  0.87382764    -0.16500
H632        H  0.26064292  0.30548913  0.81122299     0.11600
H633        H  0.29643826  0.33879114  0.84147492     0.10900
H634        H  0.36694854  0.33154244  0.77098952     0.10900
H635        H  0.33170867  0.29731798  0.74075903     0.11400
H636        H  0.39153983  0.42085983  0.80015392     0.11400
H637        H  0.43067402  0.46110895  0.81060165     0.11400
H638        H  0.43984175  0.43048776  0.90173137     0.11600
H639        H  0.40005261  0.39054346  0.89102490     0.10400
C640        C  0.77856571  0.23714218  0.16226509    -0.03400
C641        C  0.76238492  0.21283531  0.14641838    -0.09200
C642        C  0.77905877  0.18956124  0.13005475    -0.16900
C643        C  0.81226499  0.19025659  0.12887437     0.25300
C644        C  0.82869562  0.21463986  0.14370750    -0.18500
C645        C  0.81209634  0.23793420  0.16020274    -0.07400
C646        C  0.82950402  0.16603659  0.11237811    -0.13900
C647        C  0.84438284  0.14617878  0.09841032    -0.13600
C648        C  0.86302211  0.12354686  0.08120744     0.25200
C649        C  0.89418652  0.13074366  0.07292431    -0.19000
C650        C  0.91210556  0.10945061  0.05529147    -0.07500
C651        C  0.89910613  0.08059872  0.04570375    -0.03600
C652        C  0.86795874  0.07325286  0.05457303    -0.08900
C653        C  0.84999708  0.09467738  0.07216485    -0.16500
H654        H  0.73666687  0.21165525  0.14710984     0.11600
H655        H  0.76602683  0.17094197  0.11845322     0.10900
H656        H  0.85441926  0.21559953  0.14263210     0.10900
H657        H  0.82599914  0.25619497  0.17100361     0.11400
H658        H  0.90453147  0.15298368  0.07981693     0.11400
H659        H  0.93605932  0.11570826  0.04890048     0.11400
H660        H  0.85722946  0.05128572  0.04752825     0.11600
H661        H  0.82587447  0.08886286  0.07843761     0.10400
C662        C  0.69221653  0.31834553  0.16150972    -0.03400
C663        C  0.67546241  0.30506362  0.13671192    -0.09200
C664        C  0.65524418  0.32317505  0.11953821    -0.16900
C665        C  0.65135724  0.35497122  0.12668196     0.25300
C666        C  0.66719605  0.36829799  0.15193013    -0.18500
C667        C  0.68739810  0.35004587  0.16935348    -0.07400
C668        C  0.63138148  0.37354204  0.10767707    -0.13900
C669        C  0.61400574  0.38754916  0.09110573    -0.13600
C670        C  0.59145632  0.40363990  0.07246857     0.25200
C671        C  0.59704660  0.43428125  0.06420882    -0.19000
C672        C  0.57268309  0.45151152  0.05103957    -0.07500
C673        C  0.54185758  0.43895322  0.04778681    -0.03600
C674        C  0.53850856  0.40660376  0.05088669    -0.08900
C675        C  0.56278099  0.38929118  0.06396804    -0.16500
H676        H  0.67829852  0.28060588  0.13035371     0.11600
H677        H  0.64299461  0.31241893  0.10033929     0.10900
H678        H  0.66434493  0.39285855  0.15785619     0.10900
H679        H  0.70012520  0.36091150  0.18819131     0.11400
H680        H  0.61957664  0.44543521  0.06944518     0.11400
H681        H  0.57699634  0.47569404  0.04646868     0.11400
H682        H  0.51653292  0.39491488  0.04489862     0.11600
H683        H  0.55858182  0.36511360  0.06871787     0.10400
C684        C  0.77162827  0.33037989  0.23766534    -0.03400
C685        C  0.75919412  0.33524884  0.26692695    -0.09200
C686        C  0.77552852  0.35401554  0.28851818    -0.16900
C687        C  0.80436208  0.36835733  0.28109833     0.25300
C688        C  0.81600695  0.36471310  0.25158650    -0.18500
C689        C  0.79982863  0.34595128  0.23009926    -0.07400
C690        C  0.82249958  0.38599911  0.30382081    -0.13900
C691        C  0.83693579  0.40047529  0.32349403    -0.13600
C692        C  0.85024242  0.41810825  0.34911832     0.25200
C693        C  0.88310048  0.42379953  0.35236079    -0.19000
C694        C  0.89489894  0.44096543  0.37785253    -0.07500
C695        C  0.87387749  0.45257779  0.40037882    -0.03600
C696        C  0.84098579  0.44667144  0.39634216    -0.08900
C697        C  0.82944730  0.42971005  0.37132592    -0.16500
H698        H  0.73775479  0.32337167  0.27352066     0.11600
H699        H  0.76608280  0.35667453  0.31122863     0.10900
H700        H  0.83803383  0.37578729  0.24533654     0.10900
H701        H  0.80984100  0.34299061  0.20764130     0.11400
H702        H  0.89955615  0.41508465  0.33519000     0.11400
H703        H  0.92007448  0.44533714  0.37945507     0.11400
H704        H  0.82383094  0.45562368  0.41279800     0.11600
H705        H  0.80406342  0.42576092  0.36928462     0.10400
C706        C  0.53849350  0.08040676  0.48911145    -0.03400
C707        C  0.57101089  0.08341864  0.48204607    -0.09200
C708        C  0.59344909  0.08894913  0.50488554    -0.16900
C709        C  0.58401716  0.08973945  0.53514552     0.25300
C710        C  0.55276310  0.08182965  0.54246659    -0.18500
C711        C  0.53033433  0.07646883  0.51955538    -0.07400
C712        C  0.60555511  0.10125322  0.55825978    -0.13900
C713        C  0.62290221  0.11382148  0.57667907    -0.13600
C714        C  0.64320374  0.13069854  0.59779251     0.25200
C715        C  0.63347636  0.15955399  0.61052945    -0.19000
C716        C  0.65328519  0.17612254  0.63081554    -0.07500
C717        C  0.68314279  0.16405010  0.63868395    -0.03600
C718        C  0.69283095  0.13518811  0.62536825    -0.08900
C719        C  0.67298474  0.11865539  0.60517777    -0.16500
H720        H  0.57939607  0.08176271  0.45908611     0.11600
H721        H  0.61793174  0.09357125  0.49889062     0.10900
H722        H  0.54533133  0.08130563  0.56583602     0.10900
H723        H  0.50602020  0.07145494  0.52576903     0.11400
H724        H  0.61052291  0.16920654  0.60486325     0.11400
H725        H  0.64487063  0.19803717  0.64067088     0.11400
H726        H  0.71594130  0.12545533  0.63017717     0.11600
H727        H  0.68095906  0.09654012  0.59522054     0.10400
C728        C  0.42732566  0.14968010  0.52007152    -0.03400
C729        C  0.44182930  0.16430552  0.54554650    -0.09200
C730        C  0.42340341  0.17795351  0.56884145    -0.16900
C731        C  0.39019545  0.17751127  0.56704445     0.25300
C732        C  0.37545624  0.16360488  0.54164785    -0.18500
C733        C  0.39380621  0.14975891  0.51838276    -0.07400
C734        C  0.37127455  0.19054210  0.59162151    -0.13900
C735        C  0.35520363  0.20052450  0.61244658    -0.13600
C736        C  0.33513793  0.21117929  0.63718366     0.25200
C737        C  0.30741947  0.19481550  0.64355400    -0.19000
C738        C  0.28742303  0.20520324  0.66706286    -0.07500
C739        C  0.29494809  0.23208496  0.68496802    -0.03600
C740        C  0.32311321  0.24821418  0.67851467    -0.08900
C741        C  0.34299916  0.23786538  0.65475719    -0.16500
H742        H  0.46742026  0.16528369  0.54760145     0.11600
H743        H  0.43510021  0.18870053  0.58837173     0.10900
H744        H  0.34974605  0.16301653  0.54003450     0.10900
H745        H  0.38154215  0.13847192  0.49954260     0.11400
H746        H  0.30099729  0.17418533  0.63005619     0.11400
H747        H  0.26568360  0.19245268  0.67051457     0.11400
H748        H  0.33007397  0.26867975  0.69182350     0.11600
H749        H  0.36447868  0.25069295  0.65009537     0.10400
C750        C  0.69496654  0.25328587  0.24260110    -0.03400
C751        C  0.70344229  0.22804975  0.26025790    -0.09200
C752        C  0.68125405  0.21469285  0.27932385    -0.16900
C753        C  0.65013252  0.22624848  0.28123981     0.25300
C754        C  0.64156299  0.25179135  0.26420024    -0.18500
C755        C  0.66388437  0.26532077  0.24508560    -0.07400
C756        C  0.62730000  0.21140696  0.30049571    -0.13900
C757        C  0.60992867  0.19732121  0.31695834    -0.13600
C758        C  0.59092377  0.17894547  0.33691233     0.25200
C759        C  0.55778321  0.17746002  0.33381750    -0.19000
C760        C  0.53968485  0.15880955  0.35258978    -0.07500
C761        C  0.55444410  0.14115943  0.37481718    -0.03600
C762        C  0.58777546  0.14308798  0.37784384    -0.08900
C763        C  0.60576690  0.16179639  0.35912295    -0.16500
H764        H  0.72727782  0.21845896  0.25919990     0.11600
H765        H  0.68834784  0.19507856  0.29241289     0.10900
H766        H  0.61755796  0.26099398  0.26539748     0.10900
H767        H  0.65655225  0.28446814  0.23152645     0.11400
H768        H  0.54590420  0.19062126  0.31679741     0.11400
H769        H  0.51415319  0.15848482  0.34974873     0.11400
H770        H  0.60012082  0.12965542  0.39431304     0.11600
H771        H  0.63138078  0.16258374  0.36176091     0.10400
C772        C  0.19192192  0.78208617  0.70878864    -0.03400
C773        C  0.17242975  0.76547557  0.72845803    -0.09200
C774        C  0.15360384  0.78109311  0.75033383    -0.16900
C775        C  0.15350471  0.81364559  0.75266427     0.25300
C776        C  0.17158971  0.83045862  0.73254286    -0.18500
C777        C  0.19053459  0.81495601  0.71076984    -0.07400
C778        C  0.13582809  0.83003343  0.77622397    -0.13900
C779        C  0.12244228  0.84504773  0.79603813    -0.13600
C780        C  0.10728012  0.86394522  0.81949890     0.25200
C781        C  0.11728225  0.89465871  0.82543370    -0.19000
C782        C  0.10211168  0.91330320  0.84775132    -0.07500
C783        C  0.07665825  0.90142692  0.86432036    -0.03600
C784        C  0.06704640  0.87043771  0.85846199    -0.08900
C785        C  0.08230123  0.85181881  0.83622280    -0.16500
H786        H  0.17229116  0.74024226  0.72723050     0.11600
H787        H  0.13948788  0.76777615  0.76565263     0.10900
H788        H  0.17135627  0.85570318  0.73390110     0.10900
H789        H  0.20365237  0.82923214  0.69576251     0.11400
H790        H  0.13664810  0.90426473  0.81265887     0.11400
H791        H  0.11006769  0.93704996  0.85171144     0.11400
H792        H  0.04763853  0.86060744  0.87098149     0.11600
H793        H  0.07444318  0.82805595  0.83191679     0.10400
C794        C  0.27493450  0.69787547  0.69372392    -0.03400
C795        C  0.26684811  0.68089027  0.71912839    -0.09200
C796        C  0.28904670  0.66129189  0.73229012    -0.16900
C797        C  0.31979989  0.65817303  0.72038820     0.25300
C798        C  0.32784786  0.67428005  0.69454442    -0.18500
C799        C  0.30551313  0.69389231  0.68120860    -0.07400
C800        C  0.34295518  0.63908300  0.73542609    -0.13900
C801        C  0.36083423  0.62320978  0.74982008    -0.13600
C802        C  0.38072668  0.60424034  0.76854781     0.25200
C803        C  0.41396022  0.60643102  0.76736439    -0.19000
C804        C  0.43302370  0.58836289  0.78588791    -0.07500
C805        C  0.41918960  0.56775404  0.80608766    -0.03600
C806        C  0.38571884  0.56582423  0.80709056    -0.08900
C807        C  0.36674834  0.58383177  0.78849847    -0.16500
H808        H  0.24338309  0.68306519  0.72910806     0.11600
H809        H  0.28233215  0.64892205  0.75213357     0.10900
H810        H  0.35154215  0.67214846  0.68503833     0.10900
H811        H  0.31256088  0.70686593  0.66188254     0.11400
H812        H  0.42518839  0.62206522  0.75205055     0.11400
H813        H  0.45857697  0.59022277  0.78393148     0.11400
H814        H  0.37405270  0.55061702  0.82245785     0.11600
H815        H  0.34109536  0.58193381  0.78981803     0.10400
C816        C  0.43012302  0.88811164  0.50218340    -0.03400
C817        C  0.43335832  0.88666158  0.53374079    -0.09200
C818        C  0.40926618  0.87385231  0.55125850    -0.16900
C819        C  0.38076367  0.86368227  0.53788445     0.25300
C820        C  0.37529987  0.86985594  0.50750482    -0.18500
C821        C  0.39947559  0.88285457  0.49005436    -0.07400
C822        C  0.35807524  0.84593811  0.55508452    -0.13900
C823        C  0.34066987  0.83030455  0.57029019    -0.13600
C824        C  0.32064834  0.81231989  0.58995558     0.25200
C825        C  0.30424367  0.78572735  0.57897365    -0.19000
C826        C  0.28401130  0.76932950  0.59804473    -0.07500
C827        C  0.27967726  0.77943403  0.62833904    -0.03600
C828        C  0.29711647  0.80549805  0.63936531    -0.08900
C829        C  0.31730132  0.82172260  0.62039834    -0.16500
H830        H  0.45493479  0.89431241  0.54489908     0.11600
H831        H  0.41339957  0.87084666  0.57507258     0.10900
H832        H  0.35289204  0.86348134  0.49696470     0.10900
H833        H  0.39489949  0.88654897  0.46646289     0.11400
H834        H  0.30664827  0.77796320  0.55553235     0.11400
H835        H  0.27085866  0.74951941  0.58882378     0.11400
H836        H  0.29490444  0.81362516  0.66271609     0.11600
H837        H  0.32998844  0.84193565  0.62944008     0.10400
C838        C  0.13477964  0.43150815  0.53273350    -0.03400
C839        C  0.13131708  0.44164477  0.56317787    -0.09200
C840        C  0.14695787  0.42620586  0.58603607    -0.16900
C841        C  0.16626194  0.40036318  0.57890630     0.25300
C842        C  0.16974840  0.38994956  0.54874372    -0.18500
C843        C  0.15413566  0.40538396  0.52580871    -0.07400
C844        C  0.18166289  0.38402506  0.60263945    -0.13900
C845        C  0.19321511  0.36962177  0.62273410    -0.13600
C846        C  0.20505564  0.35105858  0.64667109     0.25200
C847        C  0.23484914  0.33653229  0.64414113    -0.19000
C848        C  0.24503477  0.31637275  0.66620564    -0.07500
C849        C  0.22553537  0.31048371  0.69115425    -0.03600
C850        C  0.19610533  0.32607731  0.69399553    -0.08900
C851        C  0.18593420  0.34610493  0.67186517    -0.16500
H852        H  0.11626380  0.46133532  0.56941580     0.11600
H853        H  0.14383957  0.43433547  0.60930923     0.10900
H854        H  0.18456065  0.36990845  0.54294219     0.10900
H855        H  0.15769270  0.39719486  0.50265149     0.11400
H856        H  0.24981971  0.34007693  0.62468600     0.12900
H857        H  0.26754514  0.30442434  0.66294189     0.11400
H858        H  0.18071926  0.32252238  0.71312658     0.11600
H859        H  0.16285347  0.35726057  0.67412400     0.10400
C860        C  0.13789969  0.54809537  0.37186256    -0.03400
C861        C  0.15658470  0.53365713  0.34890094    -0.09200
C862        C  0.16860728  0.55097822  0.32540852    -0.16900
C863        C  0.16205456  0.58288927  0.32454313     0.25300
C864        C  0.14346811  0.59741956  0.34721287    -0.18500
C865        C  0.13146941  0.58019813  0.37068752    -0.07400
C866        C  0.17455233  0.60094912  0.30065117    -0.13900
C867        C  0.18491191  0.61711814  0.28137978    -0.13600
C868        C  0.19735046  0.63741060  0.25925431     0.25200
C869        C  0.18880938  0.66894595  0.26032506    -0.19000
C870        C  0.20136532  0.68890025  0.23929163    -0.07500
C871        C  0.22280471  0.67753243  0.21710968    -0.03600
C872        C  0.23130698  0.64589532  0.21614528    -0.08900
C873        C  0.21848455  0.62588174  0.23703538    -0.16500
H874        H  0.16221770  0.50909127  0.34931817     0.11600
H875        H  0.18307981  0.53952116  0.30800696     0.10900
H876        H  0.13818572  0.62209807  0.34672194     0.10900
H877        H  0.11674544  0.59197001  0.38762915     0.11400
H878        H  0.17264984  0.67815073  0.27755890     0.11400
H879        H  0.19492568  0.71334065  0.24078533     0.11400
H880        H  0.24772915  0.63666957  0.19917517     0.11600
H881        H  0.22525474  0.60152115  0.23603160     0.10400
C882        C  0.19579555  0.70533389  0.62015735    -0.03400
C883        C  0.16763336  0.71456833  0.60570903    -0.09200
C884        C  0.15041842  0.69349895  0.58711819    -0.16900
C885        C  0.16089665  0.66269797  0.58257688     0.25300
C886        C  0.18942128  0.65352336  0.59619652    -0.18500
C887        C  0.20680827  0.67468893  0.61473972    -0.07400
C888        C  0.14235626  0.64057000  0.56414268    -0.13900
C889        C  0.12827840  0.62125114  0.54846589    -0.13600
C890        C  0.11601538  0.59602194  0.52892889     0.25200
C891        C  0.13765913  0.57465538  0.51622263    -0.19000
C892        C  0.12720388  0.54998535  0.49749344    -0.07500
C893        C  0.09457446  0.54536684  0.49086869    -0.03600
C894        C  0.07271885  0.56721230  0.50342832    -0.08900
C895        C  0.08340136  0.59235663  0.52237877    -0.16500
H896        H  0.15863548  0.73810207  0.60912261     0.11600
H897        H  0.12865719  0.70115329  0.57662982     0.10900
H898        H  0.19798573  0.62982025  0.59287780     0.10900
H899        H  0.22812736  0.66675153  0.62576598     0.11400
H900        H  0.16288532  0.57702234  0.52080215     0.11400
H901        H  0.14496328  0.53402683  0.48809039     0.11400
H902        H  0.04765476  0.56526384  0.49875801     0.11600
H903        H  0.06625916  0.60886827  0.53189900     0.10400
C904        C  0.20294064  0.20050342  0.19305913    -0.03400
C905        C  0.20637791  0.20455090  0.16176261    -0.09200
C906        C  0.18799444  0.18724077  0.14085391    -0.16900
C907        C  0.16581357  0.16565444  0.15063314     0.25300
C908        C  0.16204002  0.16143068  0.18151639    -0.18500
C909        C  0.18030245  0.17874520  0.20249211    -0.07400
C910        C  0.14674784  0.14808720  0.12897163    -0.13900
C911        C  0.13086167  0.13348689  0.11069201    -0.13600
C912        C  0.11203839  0.11604299  0.08873530     0.25200
C913        C  0.08064633  0.12498942  0.08292221    -0.19000
C914        C  0.06241584  0.10813265  0.06151749    -0.07500
C915        C  0.07536798  0.08203363  0.04568552    -0.03600
C916        C  0.10687992  0.07313193  0.05176145    -0.08900
C917        C  0.12509388  0.09007476  0.07308639    -0.16500
H918        H  0.22254499  0.22127567  0.15288484     0.11600
H919        H  0.19095207  0.19088274  0.11698063     0.10900
H920        H  0.14484803  0.14488250  0.18941864     0.10900
H921        H  0.17666315  0.17526904  0.22630027     0.11400
H922        H  0.07025341  0.14501909  0.09491817     0.11400
H923        H  0.03822282  0.11549360  0.05749626     0.11400
H924        H  0.11752725  0.05316512  0.03991637     0.11600
H925        H  0.14935492  0.08291881  0.07735705     0.10400
C926        C  0.42599298  0.41384440  0.10985610    -0.03400
C927        C  0.43073332  0.38143748  0.11066971    -0.09200
C928        C  0.41269552  0.36348024  0.13000715    -0.16900
C929        C  0.38974122  0.37757383  0.14902414     0.25300
C930        C  0.38532598  0.40989160  0.14890906    -0.18500
C931        C  0.40330330  0.42790598  0.12953132    -0.07400
C932        C  0.37021710  0.35870630  0.16795619    -0.13900
C933        C  0.35363350  0.34198583  0.18261714    -0.13600
C934        C  0.33333321  0.32064176  0.19806499     0.25200
C935        C  0.30890388  0.33176327  0.21727836    -0.19000
C936        C  0.28713714  0.31097049  0.22948282    -0.07500
C937        C  0.28943913  0.27893670  0.22230271    -0.03600
C938        C  0.31486390  0.26782957  0.20420240    -0.08900
C939        C  0.33669023  0.28852676  0.19224391    -0.16500
H940        H  0.44767071  0.36982601  0.09562218     0.11600
H941        H  0.41631809  0.33848950  0.12976578     0.10900
H942        H  0.36773367  0.42114101  0.16355275     0.10900
H943        H  0.39930383  0.45279110  0.12993108     0.11400
H944        H  0.30596169  0.35654735  0.22190579     0.11400
H945        H  0.26744146  0.32005657  0.24291695     0.11400
H946        H  0.31698674  0.24320058  0.19828623     0.11600
H947        H  0.35543606  0.27955645  0.17748693     0.10400
C948        C  0.43538306  0.09552733  0.40406268    -0.03400
C949        C  0.43456223  0.12676719  0.39512637    -0.09200
C950        C  0.41014967  0.13795232  0.37737085    -0.16900
C951        C  0.38499231  0.11865912  0.36852768     0.25300
C952        C  0.38490896  0.08754622  0.37733671    -0.18500
C953        C  0.40998671  0.07599638  0.39494735    -0.07400
C954        C  0.35932700  0.13192494  0.35129044    -0.13900
C955        C  0.33973280  0.14626939  0.33729937    -0.13600
C956        C  0.31720409  0.16436188  0.32036906     0.25200
C957        C  0.28979310  0.15022572  0.30846767    -0.19000
C958        C  0.26858984  0.16708252  0.29104343    -0.07500
C959        C  0.27452804  0.19847476  0.28464015    -0.03600
C960        C  0.30169123  0.21282933  0.29747536    -0.08900
C961        C  0.32280327  0.19591714  0.31520536    -0.16500
H962        H  0.45276939  0.14310241  0.40263546     0.11600
H963        H  0.41057016  0.16207013  0.37113103     0.10900
H964        H  0.36531922  0.07234797  0.37093729     0.10900
H965        H  0.40877021  0.05234112  0.40194426     0.11400
H966        H  0.28490280  0.12596945  0.31241056     0.11400
H967        H  0.24762382  0.15524916  0.28238441     0.11400
H968        H  0.30739323  0.23672550  0.29292098     0.11600
H969        H  0.34387464  0.20728724  0.32432671     0.10400
C970        C  0.19523068  0.27875896  0.28020177    -0.03400
C971        C  0.20803592  0.30717075  0.29134260    -0.09200
C972        C  0.18923401  0.32832040  0.30872429    -0.16900
C973        C  0.15742339  0.32133389  0.31548920     0.25300
C974        C  0.14477691  0.29282221  0.30499063    -0.18500
C975        C  0.16342709  0.27178809  0.28759835    -0.07400
C976        C  0.13801408  0.34305433  0.33364714    -0.13900
C977        C  0.12366972  0.36175985  0.34988146    -0.13600
C978        C  0.11188724  0.38566309  0.37124424     0.25200
C979        C  0.07992766  0.39563270  0.37210886    -0.19000
C980        C  0.07018129  0.42016428  0.39233140    -0.07500
C981        C  0.09232301  0.43494760  0.41198804    -0.03600
C982        C  0.12421583  0.42442350  0.41051611    -0.08900
C983        C  0.13370024  0.40009650  0.39082019    -0.16500
H984        H  0.23225923  0.31339203  0.28606463     0.11600
H985        H  0.19949993  0.35021592  0.31678990     0.10900
H986        H  0.12043653  0.28681365  0.31020777     0.10900
H987        H  0.15284828  0.24990894  0.27998354     0.11400
H988        H  0.06272788  0.38493002  0.35678615     0.11400
H989        H  0.04585734  0.42806168  0.39151162     0.11400
H990        H  0.14234084  0.43572376  0.42439583     0.11600
H991        H  0.15848244  0.39303539  0.39038350     0.10400
loop_ 
_geom_bond_atom_site_label_1 
_geom_bond_atom_site_label_2 
_geom_bond_distance 
_geom_bond_site_symmetry_2 
_ccdc_geom_bond_type 
C1            C2   1.533       .  S
C1            C7   1.538       .  S
C1            C5   1.530       .  S
C1          C904   1.531       .  S
C2            H9   1.085       .  S
C2            C3   1.372       .  D
C3            C4   1.557       .  S
C3          C959   1.503       .  S
C4            C8   1.545       .  S
C4            C6   1.555       .  S
C4           H10   1.109       .  S
C5           H11   1.086       .  S
C5            C6   1.366       .  D
C6          C970   1.500       .  S
C7           H12   1.081       .  S
C7            C8   1.364       .  D
C8          C937   1.483       .  S
C13          C15   1.533       .  S
C13          C17   1.539       .  S
C13          C16   1.564       .  S
C13         C981   1.539       .  S
C14          C18   1.531       .  S
C14          C20   1.533       .  S
C14          C19   1.565       .  S
C14         C893   1.542       .  S
C15          C23   1.380       .  A
C15          C18   1.381       .  A
C16          C27   1.388       .  A
C16          C19   1.422       .  A
C17          C31   1.382       .  A
C17          C20   1.383       .  A
C18          C21   1.376       .  A
C19          C25   1.387       .  A
C20          C28   1.376       .  A
C21          N22   1.359       .  A
C21          H34   1.082       .  S
N22          C23   1.360       .  A
N22         C860   1.443       .  S
C23          H24   1.082       .  S
C25          N26   1.363       .  A
C25          H35   1.078       .  S
N26          C27   1.363       .  A
N26         N108   1.422   1_455  S
C27          H33   1.079       .  S
C28          N29   1.358       .  A
C28          H30   1.082       .  S
N29          C31   1.361       .  A
N29         C838   1.444       .  S
C31          H32   1.082       .  S
C36          C37   1.541       .  S
C36          C42   1.534       .  S
C36          C40   1.530       .  S
C36         C772   1.532       .  S
C37          H44   1.080       .  S
C37          C38   1.368       .  D
C38          C39   1.552       .  S
C38         C827   1.499       .  S
C39          C43   1.551       .  S
C39          C41   1.555       .  S
C39          H45   1.110       .  S
C40          H46   1.086       .  S
C40          C41   1.367       .  D
C41         C882   1.497       .  S
C42          H47   1.086       .  S
C42          C43   1.367       .  D
C43         C794   1.495       .  S
C48          C50   1.540       .  S
C48          C52   1.549       .  S
C48          C51   1.565       .  S
C48         C948   1.539       .  S
C49          C53   1.535       .  S
C49          C55   1.550       .  S
C49          C54   1.542       .  S
C49         C706   1.533       .  S
C50          C58   1.379       .  A
C50          C53   1.382       .  A
C51          C62   1.399       .  A
C51          C54   1.406       .  A
C52          C66   1.384       .  A
C52          C55   1.395       .  A
C53          C56   1.381       .  A
C54          C60   1.377       .  A
C55          C63   1.391       .  A
C56          N57   1.361       .  A
C56          H69   1.080       .  S
N57          C58   1.360       .  A
N57         C728   1.449       .  S
C58          H59   1.081       .  S
C60          N61   1.355       .  A
C60          H70   1.082       .  S
N61          C62   1.367       .  A
N61         N155   1.415   1_545  S
C62          H68   1.080       .  S
C63          N64   1.360       .  A
C63          H65   1.079       .  S
N64          C66   1.357       .  A
N64         C761   1.452       .  S
C66          H67   1.081       .  S
C71          C72   1.539       .  S
C71          C77   1.530       .  S
C71          C75   1.533       .  S
C71         C640   1.530       .  S
C72          H79   1.081       .  S
C72          C73   1.368       .  D
C73          C74   1.551       .  S
C73         C684   1.495       .  S
C74          C78   1.551       .  S
C74          C76   1.550       .  S
C74          H80   1.110       .  S
C75          H81   1.086       .  S
C75          C76   1.366       .  D
C76         C750   1.493       .  S
C77          H82   1.086       .  S
C77          C78   1.367       .  D
C78         C662   1.492       .  S
C83          C84   1.544       .  S
C83          C89   1.529       .  S
C83          C87   1.535       .  S
C83         C596   1.527       .  S
C84          H91   1.081       .  S
C84          C85   1.368       .  D
C85          C86   1.540       .  S
C85         C849   1.491       .  S
C86          C90   1.546       .  S
C86          C88   1.545       .  S
C86          H92   1.106       .  S
C87          H93   1.085       .  S
C87          C88   1.369       .  D
C88         C739   1.495       .  S
C89          H94   1.086       .  S
C89          C90   1.365       .  D
C90         C618   1.489       .  S
C95          C97   1.531       .  S
C95          C99   1.533       .  S
C95          C98   1.564       .  S
C95         C541   1.536       .  S
C96         C100   1.530       .  S
C96         C102   1.533       .  S
C96         C101   1.566       .  S
C96         C695   1.538       .  S
C97         C105   1.380       .  A
C97         C100   1.379       .  A
C98         C109   1.386       .  A
C98         C101   1.424       .  A
C99         C113   1.376       .  A
C99         C102   1.379       .  A
C100        C103   1.375       .  A
C101        C107   1.388       .  A
C102        C110   1.379       .  A
C103        N104   1.357       .  A
C103        H116   1.082       .  S
N104        C105   1.358       .  A
N104        C585   1.439       .  S
C105        H106   1.082       .  S
C107        N108   1.364       .  A
C107        H117   1.079       .  S
N108        C109   1.363       .  A
C109        H115   1.079       .  S
C110        N111   1.360       .  A
C110        H112   1.082       .  S
N111        C113   1.359       .  A
N111        C552   1.443       .  S
C113        H114   1.081       .  S
C118        C119   1.536       .  S
C118        C124   1.548       .  S
C118        C122   1.539       .  S
C118        C475   1.530       .  S
C119        H126   1.086       .  S
C119        C120   1.365       .  D
C120        C121   1.537       .  S
C120        C519   1.484       .  S
C121        C125   1.536       .  S
C121        C123   1.536       .  S
C121        H127   1.107       .  S
C122        H128   1.086       .  S
C122        C123   1.366       .  D
C123        C574   1.485       .  S
C124        H129   1.081       .  S
C124        C125   1.370       .  D
C125        C486   1.488       .  S
C130        C131   1.534       .  S
C130        C136   1.534       .  S
C130        C134   1.543       .  S
C130        C420   1.529       .  S
C131        H138   1.085       .  S
C131        C132   1.368       .  D
C132        C133   1.545       .  S
C132        C717   1.492       .  S
C133        C137   1.542       .  S
C133        C135   1.539       .  S
C133        H139   1.106       .  S
C134        H140   1.080       .  S
C134        C135   1.368       .  D
C135        C563   1.490       .  S
C136        H141   1.086       .  S
C136        C137   1.367       .  D
C137        C453   1.489       .  S
C142        C144   1.546       .  S
C142        C146   1.560       .  S
C142        C145   1.562       .  S
C142        C816   1.545       .  S
C143        C147   1.529       .  S
C143        C149   1.544       .  S
C143        C148   1.541       .  S
C143        C508   1.531       .  S
C144        C152   1.387       .  A
C144        C147   1.385       .  A
C145        C156   1.396       .  A
C145        C148   1.403       .  A
C146        C160   1.393       .  A
C146        C149   1.399       .  A
C147        C150   1.373       .  A
C148        C154   1.381       .  A
C149        C157   1.383       .  A
C150        N151   1.357       .  A
C150        H163   1.082       .  S
N151        C152   1.361       .  A
N151        C398   1.444       .  S
C152        H153   1.080       .  S
C154        N155   1.353       .  A
C154        H164   1.082       .  S
N155        C156   1.366       .  A
C156        H162   1.081       .  S
C157        N158   1.356       .  A
C157        H159   1.080       .  S
N158        C160   1.359       .  A
N158        C376   1.449       .  S
C160        H161   1.081       .  S
C165        C166   1.537       .  S
C165        C171   1.533       .  S
C165        C169   1.546       .  S
C165        C332   1.525       .  S
C166        H173   1.086       .  S
C166        C167   1.364       .  D
C167        C168   1.534       .  S
C167        C871   1.477       .  S
C168        C172   1.539       .  S
C168        C170   1.539       .  S
C168        H174   1.109       .  S
C169        H175   1.081       .  S
C169        C170   1.370       .  D
C170        C409   1.487       .  S
C171        H176   1.086       .  S
C171        C172   1.363       .  D
C172        C365   1.483       .  S
C177        C178   1.536       .  S
C177        C183   1.530       .  S
C177        C181   1.535       .  S
C177        C288   1.533       .  S
C178        H185   1.080       .  S
C178        C179   1.367       .  D
C179        C180   1.553       .  S
C179        C530   1.496       .  S
C180        C184   1.550       .  S
C180        C182   1.552       .  S
C180        H186   1.109       .  S
C181        H187   1.085       .  S
C181        C182   1.372       .  D
C182        C387   1.502       .  S
C183        H188   1.086       .  S
C183        C184   1.366       .  D
C184        C321   1.490       .  S
C189        C191   1.545       .  S
C189        C193   1.558       .  S
C189        C192   1.550       .  S
C189        C673   1.540       .  S
C190        C194   1.537       .  S
C190        C196   1.546       .  S
C190        C195   1.529       .  S
C190        C354   1.528       .  S
C191        C199   1.381       .  A
C191        C194   1.389       .  A
C192        C203   1.392   1_554  A
C192        C195   1.391       .  A
C193        C207   1.393       .  A
C193        C196   1.413       .  A
C194        C197   1.378       .  A
C195        C201   1.377   1_554  A
C196        C204   1.388       .  A
C197        N198   1.358       .  A
C197        H210   1.081       .  S
N198        C199   1.358       .  A
N198        C497   1.441       .  S
C199        H200   1.080       .  S
C201        N202   1.355       .  A
C201        H211   1.082       .  S
N202        C203   1.366       .  A
N202        N225   1.412       .  S
C203        H209   1.082       .  S
C204        N205   1.351       .  A
C204        H206   1.080       .  S
N205        C207   1.352       .  A
N205        C926   1.447       .  S
C207        H208   1.080       .  S
C212        C214   1.534       .  S
C212        C216   1.546       .  S
C212        C215   1.569       .  S
C212        C310   1.535       .  S
C213        C217   1.528       .  S
C213        C219   1.538       .  S
C213        C218   1.553       .  S
C213        C629   1.529       .  S
C214        C222   1.380       .  A
C214        C217   1.378       .  A
C215        C226   1.397       .  A
C215        C218   1.419       .  A
C216        C230   1.385       .  A
C216        C219   1.384       .  A
C217        C220   1.376       .  A
C218        C224   1.381       .  A
C219        C227   1.382       .  A
C220        N221   1.357       .  A
C220        H233   1.082       .  S
N221        C222   1.360       .  A
N221        C442   1.441       .  S
C222        H223   1.082       .  S
C224        N225   1.351       .  A
C224        H234   1.077       .  S
N225        C226   1.362       .  A
C226        H232   1.079       .  S
C227        N228   1.361       .  A
C227        H229   1.080       .  S
N228        C230   1.362       .  A
N228        C805   1.452       .  S
C230        H231   1.081       .  S
C235        N253   1.349       .  A
C235        C272   1.465       .  S
C235        C343   1.477       .  S
N236        N253   1.322   1_556  A
N236        N258   1.320       .  A
N236       Co273   2.076   1_455  S
C237        N262   1.339       .  A
C237        H282   1.082       .  S
C237        C275   1.461       .  S
H238        C279   1.081       .  S
C239        N263   1.342   1_554  A
C239        H268   1.081       .  S
C239        C243   1.464       .  S
Co240       N258   2.086       .  S
Co240       N248   2.085   1_565  S
Co240       N280   2.084       .  S
Co240       N256   2.086   1_565  S
Co240      Cl284   2.452   1_455  S
N241        C279   1.343   1_556  A
N241        N248   1.320       .  A
N241       Co242   2.093   1_455  S
Co242       N245   2.080       .  S
Co242       N262   2.077   1_655  S
Co242       N249   2.094       .  S
Co242      Cl284   2.450   1_545  S
C243        N281   1.350       .  A
C243        C651   1.479       .  S
N244        N251   1.319       .  A
N244        N274   1.322   1_556  A
N244       Co277   2.077       .  S
N245        N263   1.319       .  A
N245        N281   1.323   1_556  A
N246        C275   1.352       .  A
N246        N256   1.324       .  A
H247        C272   1.081       .  S
N248        N269   1.324   1_556  A
N249        N267   1.319       .  A
N249        N254   1.326       .  A
C250        N254   1.354       .  A
C250        C278   1.458       .  S
C250        C431   1.479       .  S
N251        C266   1.344   1_556  A
N251       Co273   2.092       .  S
C252        N280   1.341       .  A
C252        H286   1.081       .  S
C252        C255   1.462       .  S
C255        N276   1.350       .  A
C255        C783   1.479       .  S
N256        N262   1.319       .  A
N257        C283   1.340       .  A
N257        N259   1.318       .  A
N257       Co273   2.082       .  S
N258        C272   1.341   1_556  A
N259        N287   1.325       .  A
N259       Co277   2.086       .  S
H260        C283   1.081       .  S
H261        C278   1.081       .  S
N263       Co277   2.088   1_545  S
N264        N276   1.324       .  A
N264        N280   1.320       .  A
N264       Co273   2.087   1_455  S
C265        N269   1.350       .  A
C265        C279   1.464       .  S
C265        C915   1.482       .  S
C266        H270   1.082       .  S
C266        C285   1.466       .  S
N267        C278   1.337       .  A
N267       Co277   2.072   1_545  S
C271        N287   1.351       .  A
C271        C283   1.464       .  S
C271        C299   1.481       .  S
Co273      Cl284   2.449       .  S
N274        C285   1.349       .  A
C275        C607   1.476       .  S
Co277      Cl284   2.449       .  S
C285        C464   1.481       .  S
C288        C289   1.414       .  A
C288        C293   1.412       .  A
C289        C290   1.399       .  A
C289        H302   1.076       .  S
C290        C291   1.398       .  A
C290        H303   1.083       .  S
C291        C292   1.398       .  A
C291        C294   1.442       .  S
C292        C293   1.400       .  A
C292        H304   1.083       .  S
C293        H305   1.083       .  S
C294        C295   1.207       .  T
C295        C296   1.442       .  S
C296        C297   1.401       .  A
C296        C301   1.399       .  A
C297        C298   1.401       .  A
C297        H306   1.084       .  S
C298        C299   1.408       .  A
C298        H307   1.083       .  S
C299        C300   1.406       .  A
C300        C301   1.397       .  A
C300        H308   1.082       .  S
C301        H309   1.084       .  S
C310        C311   1.408       .  A
C310        C315   1.415       .  A
C311        C312   1.412       .  A
C311        H324   1.074       .  S
C312        C313   1.407       .  A
C312        H325   1.083       .  S
C313        C314   1.392       .  A
C313        C316   1.447       .  S
C314        C315   1.390       .  A
C314        H326   1.084       .  S
C315        H327   1.084       .  S
C316        C317   1.211       .  T
C317        C318   1.448       .  S
C318        C319   1.405       .  A
C318        C323   1.398       .  A
C319        C320   1.406       .  A
C319        H328   1.083       .  S
C320        C321   1.405       .  A
C320        H329   1.083       .  S
C321        C322   1.409       .  A
C322        C323   1.397       .  A
C322        H330   1.083       .  S
C323        H331   1.083       .  S
C332        C333   1.411       .  A
C332        C337   1.411       .  A
C333        C334   1.395       .  A
C333        H346   1.084       .  S
C334        C335   1.396       .  A
C334        H347   1.084       .  S
C335        C336   1.398       .  A
C335        C338   1.437       .  S
C336        C337   1.399       .  A
C336        H348   1.084       .  S
C337        H349   1.077       .  S
C338        C339   1.204       .  T
C339        C340   1.437       .  S
C340        C341   1.400       .  A
C340        C345   1.398       .  A
C341        C342   1.398       .  A
C341        H350   1.083       .  S
C342        C343   1.406       .  A
C342        H351   1.082       .  S
C343        C344   1.406       .  A
C344        C345   1.396       .  A
C344        H352   1.083       .  S
C345        H353   1.084       .  S
C354        C355   1.410       .  A
C354        C359   1.408       .  A
C355        C356   1.398       .  A
C355        H368   1.080       .  S
C356        C357   1.398       .  A
C356        H369   1.083       .  S
C357        C358   1.399       .  A
C357        C360   1.438       .  S
C358        C359   1.397       .  A
C358        H370   1.084       .  S
C359        H371   1.082       .  S
C360        C361   1.205       .  T
C361        C362   1.439       .  S
C362        C363   1.401       .  A
C362        C367   1.398       .  A
C363        C364   1.399       .  A
C363        H372   1.083       .  S
C364        C365   1.404       .  A
C364        H373   1.083       .  S
C365        C366   1.408       .  A
C366        C367   1.397       .  A
C366        H374   1.083       .  S
C367        H375   1.083       .  S
C376        C377   1.407       .  A
C376        C381   1.410       .  A
C377        C378   1.405       .  A
C377        H390   1.082       .  S
C378        C379   1.403       .  A
C378        H391   1.083       .  S
C379        C380   1.402       .  A
C379        C382   1.454       .  S
C380        C381   1.403       .  A
C380        H392   1.084       .  S
C381        H393   1.082       .  S
C382        C383   1.215       .  T
C383        C384   1.454       .  S
C384        C385   1.405       .  A
C384        C389   1.398       .  A
C385        C386   1.409       .  A
C385        H394   1.083       .  S
C386        C387   1.409       .  A
C386        H395   1.082       .  S
C387        C388   1.410       .  A
C388        C389   1.398       .  A
C388        H396   1.082       .  S
C389        H397   1.083       .  S
C398        C399   1.409       .  A
C398        C403   1.408       .  A
C399        C400   1.402       .  A
C399        H412   1.082       .  S
C400        C401   1.401       .  A
C400        H413   1.083       .  S
C401        C402   1.397       .  A
C401        C404   1.440       .  S
C402        C403   1.394       .  A
C402        H414   1.084       .  S
C403        H415   1.081       .  S
C404        C405   1.206       .  T
C405        C406   1.441       .  S
C406        C407   1.401       .  A
C406        C411   1.399       .  A
C407        C408   1.399       .  A
C407        H416   1.084       .  S
C408        C409   1.406       .  A
C408        H417   1.083       .  S
C409        C410   1.407       .  A
C410        C411   1.399       .  A
C410        H418   1.082       .  S
C411        H419   1.083       .  S
C420        C421   1.413       .  A
C420        C425   1.411       .  A
C421        C422   1.398       .  A
C421        H434   1.077       .  S
C422        C423   1.397       .  A
C422        H435   1.083       .  S
C423        C424   1.398       .  A
C423        C426   1.439       .  S
C424        C425   1.398       .  A
C424        H436   1.084       .  S
C425        H437   1.083       .  S
C426        C427   1.206       .  T
C427        C428   1.439       .  S
C428        C429   1.399       .  A
C428        C433   1.400       .  A
C429        C430   1.398       .  A
C429        H438   1.083       .  S
C430        C431   1.408       .  A
C430        H439   1.082       .  S
C431        C432   1.405       .  A
C432        C433   1.399       .  A
C432        H440   1.082       .  S
C433        H441   1.084       .  S
C442        C443   1.406       .  A
C442        C447   1.408       .  A
C443        C444   1.397       .  A
C443        H456   1.082       .  S
C444        C445   1.399       .  A
C444        H457   1.083       .  S
C445        C446   1.399       .  A
C445        C448   1.438       .  S
C446        C447   1.398       .  A
C446        H458   1.084       .  S
C447        H459   1.082       .  S
C448        C449   1.205       .  T
C449        C450   1.438       .  S
C450        C451   1.399       .  A
C450        C455   1.398       .  A
C451        C452   1.399       .  A
C451        H460   1.083       .  S
C452        C453   1.407       .  A
C452        H461   1.080       .  S
C453        C454   1.409       .  A
C454        C455   1.396       .  A
C454        H462   1.082       .  S
C455        H463   1.084       .  S
C464        C465   1.407       .  A
C464        C469   1.407       .  A
C465        C466   1.397       .  A
C465        H478   1.083       .  S
C466        C467   1.398       .  A
C466        H479   1.083       .  S
C467        C468   1.402       .  A
C467        C470   1.442       .  S
C468        C469   1.402       .  A
C468        H480   1.084       .  S
C469        H481   1.082       .  S
C470        C471   1.208       .  T
C471        C472   1.442       .  S
C472        C473   1.399       .  A
C472        C477   1.397       .  A
C473        C474   1.401       .  A
C473        H482   1.084       .  S
C474        C475   1.412       .  A
C474        H483   1.077       .  S
C475        C476   1.411       .  A
C476        C477   1.397       .  A
C476        H484   1.083       .  S
C477        H485   1.083       .  S
C486        C487   1.408       .  A
C486        C491   1.407       .  A
C487        C488   1.398       .  A
C487        H500   1.082       .  S
C488        C489   1.398       .  A
C488        H501   1.083       .  S
C489        C490   1.400       .  A
C489        C492   1.440       .  S
C490        C491   1.399       .  A
C490        H502   1.084       .  S
C491        H503   1.082       .  S
C492        C493   1.206       .  T
C493        C494   1.440       .  S
C494        C495   1.399       .  A
C494        C499   1.399       .  A
C495        C496   1.399       .  A
C495        H504   1.084       .  S
C496        C497   1.407       .  A
C496        H505   1.082       .  S
C497        C498   1.408       .  A
C498        C499   1.397       .  A
C498        H506   1.082       .  S
C499        H507   1.083       .  S
C508        C509   1.411       .  A
C508        C513   1.413       .  A
C509        C510   1.392       .  A
C509        H522   1.082       .  S
C510        C511   1.394       .  A
C510        H523   1.079       .  S
C511        C512   1.398       .  A
C511        C514   1.437       .  S
C512        C513   1.401       .  A
C512        H524   1.083       .  S
C513        H525   1.078       .  S
C514        C515   1.205       .  T
C515        C516   1.438       .  S
C516        C517   1.399       .  A
C516        C521   1.400       .  A
C517        C518   1.398       .  A
C517        H526   1.083       .  S
C518        C519   1.408       .  A
C518        H527   1.082       .  S
C519        C520   1.406       .  A
C520        C521   1.397       .  A
C520        H528   1.083       .  S
C521        H529   1.084       .  S
C530        C531   1.412       .  A
C530        C535   1.405       .  A
C531        C532   1.399       .  A
C531        H544   1.083       .  S
C532        C533   1.398       .  A
C532        H545   1.083       .  S
C533        C534   1.405       .  A
C533        C536   1.451       .  S
C534        C535   1.406       .  A
C534        H546   1.083       .  S
C535        H547   1.081       .  S
C536        C537   1.213       .  T
C537        C538   1.449       .  S
C538        C539   1.391       .  A
C538        C543   1.409       .  A
C539        C540   1.389       .  A
C539        H548   1.084       .  S
C540        C541   1.415       .  A
C540        H549   1.084       .  S
C541        C542   1.408       .  A
C542        C543   1.414       .  A
C542        H550   1.077       .  S
C543        H551   1.083       .  S
C552        C553   1.409       .  A
C552        C557   1.408       .  A
C553        C554   1.399       .  A
C553        H566   1.081       .  S
C554        C555   1.399       .  A
C554        H567   1.083       .  S
C555        C556   1.398       .  A
C555        C558   1.438       .  S
C556        C557   1.396       .  A
C556        H568   1.084       .  S
C557        H569   1.081       .  S
C558        C559   1.205       .  T
C559        C560   1.438       .  S
C560        C561   1.397       .  A
C560        C565   1.400       .  A
C561        C562   1.395       .  A
C561        H570   1.084       .  S
C562        C563   1.409       .  A
C562        H571   1.082       .  S
C563        C564   1.408       .  A
C564        C565   1.400       .  A
C564        H572   1.081       .  S
C565        H573   1.083       .  S
C574        C575   1.407       .  A
C574        C579   1.407       .  A
C575        C576   1.397       .  A
C575        H588   1.082       .  S
C576        C577   1.399       .  A
C576        H589   1.083       .  S
C577        C578   1.399       .  A
C577        C580   1.437       .  S
C578        C579   1.398       .  A
C578        H590   1.084       .  S
C579        H591   1.082       .  S
C580        C581   1.205       .  T
C581        C582   1.437       .  S
C582        C583   1.398       .  A
C582        C587   1.400       .  A
C583        C584   1.395       .  A
C583        H592   1.084       .  S
C584        C585   1.406       .  A
C584        H593   1.082       .  S
C585        C586   1.407       .  A
C586        C587   1.400       .  A
C586        H594   1.082       .  S
C587        H595   1.083       .  S
C596        C597   1.411       .  A
C596        C601   1.412       .  A
C597        C598   1.396       .  A
C597        H610   1.083       .  S
C598        C599   1.397       .  A
C598        H611   1.084       .  S
C599        C600   1.397       .  A
C599        C602   1.436       .  S
C600        C601   1.397       .  A
C600        H612   1.083       .  S
C601        H613   1.077       .  S
C602        C603   1.204       .  T
C603        C604   1.436       .  S
C604        C605   1.399       .  A
C604        C609   1.399       .  A
C605        C606   1.397       .  A
C605        H614   1.084       .  S
C606        C607   1.406       .  A
C606        H615   1.083       .  S
C607        C608   1.406       .  A
C608        C609   1.397       .  A
C608        H616   1.083       .  S
C609        H617   1.084       .  S
C618        C619   1.410       .  A
C618        C623   1.405       .  A
C619        C620   1.397       .  A
C619        H632   1.081       .  S
C620        C621   1.397       .  A
C620        H633   1.083       .  S
C621        C622   1.401       .  A
C621        C624   1.438       .  S
C622        C623   1.399       .  A
C622        H634   1.083       .  S
C623        H635   1.081       .  S
C624        C625   1.205       .  T
C625        C626   1.437       .  S
C626        C627   1.392       .  A
C626        C631   1.400       .  A
C627        C628   1.388       .  A
C627        H636   1.084       .  S
C628        C629   1.412       .  A
C628        H637   1.083       .  S
C629        C630   1.410       .  A
C630        C631   1.404       .  A
C630        H638   1.071       .  S
C631        H639   1.083       .  S
C640        C641   1.411       .  A
C640        C645   1.413       .  A
C641        C642   1.397       .  A
C641        H654   1.083       .  S
C642        C643   1.397       .  A
C642        H655   1.083       .  S
C643        C644   1.398       .  A
C643        C646   1.441       .  S
C644        C645   1.399       .  A
C644        H656   1.083       .  S
C645        H657   1.076       .  S
C646        C647   1.206       .  T
C647        C648   1.440       .  S
C648        C649   1.399       .  A
C648        C653   1.401       .  A
C649        C650   1.397       .  A
C649        H658   1.084       .  S
C650        C651   1.406       .  A
C650        H659   1.083       .  S
C651        C652   1.407       .  A
C652        C653   1.401       .  A
C652        H660   1.082       .  S
C653        H661   1.084       .  S
C662        C663   1.408       .  A
C662        C667   1.406       .  A
C663        C664   1.398       .  A
C663        H676   1.083       .  S
C664        C665   1.399       .  A
C664        H677   1.083       .  S
C665        C666   1.406       .  A
C665        C668   1.451       .  S
C666        C667   1.408       .  A
C666        H678   1.083       .  S
C667        H679   1.083       .  S
C668        C669   1.213       .  T
C669        C670   1.451       .  S
C670        C671   1.401       .  A
C670        C675   1.400       .  A
C671        C672   1.404       .  A
C671        H680   1.084       .  S
C672        C673   1.410       .  A
C672        H681   1.083       .  S
C673        C674   1.410       .  A
C674        C675   1.401       .  A
C674        H682   1.081       .  S
C675        H683   1.083       .  S
C684        C685   1.406       .  A
C684        C689   1.409       .  A
C685        C686   1.407       .  A
C685        H698   1.083       .  S
C686        C687   1.406       .  A
C686        H699   1.084       .  S
C687        C688   1.399       .  A
C687        C690   1.454       .  S
C688        C689   1.401       .  A
C688        H700   1.083       .  S
C689        H701   1.083       .  S
C690        C691   1.214       .  T
C691        C692   1.453       .  S
C692        C693   1.410       .  A
C692        C697   1.392       .  A
C693        C694   1.415       .  A
C693        H702   1.083       .  S
C694        C695   1.408       .  A
C694        H703   1.077       .  S
C695        C696   1.416       .  A
C696        C697   1.391       .  A
C696        H704   1.084       .  S
C697        H705   1.084       .  S
C706        C707   1.409       .  A
C706        C711   1.410       .  A
C707        C708   1.398       .  A
C707        H720   1.077       .  S
C708        C709   1.398       .  A
C708        H721   1.083       .  S
C709        C710   1.399       .  A
C709        C712   1.441       .  S
C710        C711   1.399       .  A
C710        H722   1.083       .  S
C711        H723   1.083       .  S
C712        C713   1.207       .  T
C713        C714   1.442       .  S
C714        C715   1.401       .  A
C714        C719   1.398       .  A
C715        C716   1.401       .  A
C715        H724   1.083       .  S
C716        C717   1.406       .  A
C716        H725   1.080       .  S
C717        C718   1.410       .  A
C718        C719   1.398       .  A
C718        H726   1.081       .  S
C719        H727   1.083       .  S
C728        C729   1.410       .  A
C728        C733   1.411       .  A
C729        C730   1.399       .  A
C729        H742   1.080       .  S
C730        C731   1.398       .  A
C730        H743   1.084       .  S
C731        C732   1.399       .  A
C731        C734   1.442       .  S
C732        C733   1.399       .  A
C732        H744   1.083       .  S
C733        H745   1.081       .  S
C734        C735   1.207       .  T
C735        C736   1.442       .  S
C736        C737   1.397       .  A
C736        C741   1.400       .  A
C737        C738   1.396       .  A
C737        H746   1.084       .  S
C738        C739   1.411       .  A
C738        H747   1.081       .  S
C739        C740   1.408       .  A
C740        C741   1.401       .  A
C740        H748   1.080       .  S
C741        H749   1.083       .  S
C750        C751   1.409       .  A
C750        C755   1.406       .  A
C751        C752   1.398       .  A
C751        H764   1.082       .  S
C752        C753   1.399       .  A
C752        H765   1.084       .  S
C753        C754   1.404       .  A
C753        C756   1.450       .  S
C754        C755   1.407       .  A
C754        H766   1.083       .  S
C755        H767   1.083       .  S
C756        C757   1.212       .  T
C757        C758   1.450       .  S
C758        C759   1.401       .  A
C758        C763   1.401       .  A
C759        C760   1.404       .  A
C759        H768   1.083       .  S
C760        C761   1.412       .  A
C760        H769   1.081       .  S
C761        C762   1.410       .  A
C762        C763   1.401       .  A
C762        H770   1.082       .  S
C763        H771   1.083       .  S
C772        C773   1.412       .  A
C772        C777   1.412       .  A
C773        C774   1.400       .  A
C773        H786   1.083       .  S
C774        C775   1.398       .  A
C774        H787   1.083       .  S
C775        C776   1.397       .  A
C775        C778   1.440       .  S
C776        C777   1.397       .  A
C776        H788   1.084       .  S
C777        H789   1.076       .  S
C778        C779   1.206       .  T
C779        C780   1.440       .  S
C780        C781   1.401       .  A
C780        C785   1.399       .  A
C781        C782   1.399       .  A
C781        H790   1.083       .  S
C782        C783   1.406       .  A
C782        H791   1.082       .  S
C783        C784   1.406       .  A
C784        C785   1.398       .  A
C784        H792   1.083       .  S
C785        H793   1.083       .  S
C794        C795   1.409       .  A
C794        C799   1.407       .  A
C795        C796   1.399       .  A
C795        H808   1.083       .  S
C796        C797   1.400       .  A
C796        H809   1.084       .  S
C797        C798   1.405       .  A
C797        C800   1.452       .  S
C798        C799   1.407       .  A
C798        H810   1.083       .  S
C799        H811   1.083       .  S
C800        C801   1.213       .  T
C801        C802   1.452       .  S
C802        C803   1.401       .  A
C802        C807   1.401       .  A
C803        C804   1.404       .  A
C803        H812   1.083       .  S
C804        C805   1.411       .  A
C804        H813   1.081       .  S
C805        C806   1.410       .  A
C806        C807   1.402       .  A
C806        H814   1.081       .  S
C807        H815   1.083       .  S
C816        C817   1.410       .  A
C816        C821   1.412       .  A
C817        C818   1.403       .  A
C817        H830   1.079       .  S
C818        C819   1.400       .  A
C818        H831   1.084       .  S
C819        C820   1.403       .  A
C819        C822   1.457       .  S
C820        C821   1.407       .  A
C820        H832   1.083       .  S
C821        H833   1.082       .  S
C822        C823   1.217       .  T
C823        C824   1.457       .  S
C824        C825   1.406       .  A
C824        C829   1.400       .  A
C825        C826   1.409       .  A
C825        H834   1.083       .  S
C826        C827   1.406       .  A
C826        H835   1.082       .  S
C827        C828   1.411       .  A
C828        C829   1.401       .  A
C828        H836   1.083       .  S
C829        H837   1.083       .  S
C838        C839   1.409       .  A
C838        C843   1.408       .  A
C839        C840   1.398       .  A
C839        H852   1.082       .  S
C840        C841   1.399       .  A
C840        H853   1.084       .  S
C841        C842   1.400       .  A
C841        C844   1.442       .  S
C842        C843   1.400       .  A
C842        H854   1.083       .  S
C843        H855   1.082       .  S
C844        C845   1.208       .  T
C845        C846   1.442       .  S
C846        C847   1.400       .  A
C846        C851   1.399       .  A
C847        C848   1.400       .  A
C847        H856   1.083       .  S
C848        C849   1.408       .  A
C848        H857   1.082       .  S
C849        C850   1.408       .  A
C850        C851   1.398       .  A
C850        H858   1.082       .  S
C851        H859   1.084       .  S
C860        C861   1.408       .  A
C860        C865   1.408       .  A
C861        C862   1.400       .  A
C861        H874   1.082       .  S
C862        C863   1.400       .  A
C862        H875   1.083       .  S
C863        C864   1.398       .  A
C863        C866   1.439       .  S
C864        C865   1.396       .  A
C864        H876   1.084       .  S
C865        H877   1.081       .  S
C866        C867   1.205       .  T
C867        C868   1.438       .  S
C868        C869   1.400       .  A
C868        C873   1.400       .  A
C869        C870   1.397       .  A
C869        H878   1.084       .  S
C870        C871   1.405       .  A
C870        H879   1.083       .  S
C871        C872   1.404       .  A
C872        C873   1.398       .  A
C872        H880   1.083       .  S
C873        H881   1.083       .  S
C882        C883   1.410       .  A
C882        C887   1.406       .  A
C883        C884   1.402       .  A
C883        H896   1.083       .  S
C884        C885   1.400       .  A
C884        H897   1.083       .  S
C885        C886   1.406       .  A
C885        C888   1.456       .  S
C886        C887   1.407       .  A
C886        H898   1.084       .  S
C887        H899   1.082       .  S
C888        C889   1.216       .  T
C889        C890   1.455       .  S
C890        C891   1.393       .  A
C890        C895   1.409       .  A
C891        C892   1.392       .  A
C891        H900   1.084       .  S
C892        C893   1.416       .  A
C892        H901   1.084       .  S
C893        C894   1.409       .  A
C894        C895   1.416       .  A
C894        H902   1.077       .  S
C895        H903   1.083       .  S
C904        C905   1.413       .  A
C904        C909   1.411       .  A
C905        C906   1.399       .  A
C905        H918   1.076       .  S
C906        C907   1.398       .  A
C906        H919   1.084       .  S
C907        C908   1.398       .  A
C907        C910   1.442       .  S
C908        C909   1.398       .  A
C908        H920   1.083       .  S
C909        H921   1.083       .  S
C910        C911   1.208       .  T
C911        C912   1.442       .  S
C912        C913   1.400       .  A
C912        C917   1.400       .  A
C913        C914   1.400       .  A
C913        H922   1.084       .  S
C914        C915   1.406       .  A
C914        H923   1.081       .  S
C915        C916   1.407       .  A
C916        C917   1.399       .  A
C916        H924   1.083       .  S
C917        H925   1.083       .  S
C926        C927   1.408       .  A
C926        C931   1.410       .  A
C927        C928   1.401       .  A
C927        H940   1.082       .  S
C928        C929   1.401       .  A
C928        H941   1.084       .  S
C929        C930   1.401       .  A
C929        C932   1.447       .  S
C930        C931   1.402       .  A
C930        H942   1.083       .  S
C931        H943   1.081       .  S
C932        C933   1.210       .  T
C933        C934   1.447       .  S
C934        C935   1.404       .  A
C934        C939   1.400       .  A
C935        C936   1.404       .  A
C935        H944   1.083       .  S
C936        C937   1.403       .  A
C936        H945   1.082       .  S
C937        C938   1.406       .  A
C938        C939   1.398       .  A
C938        H946   1.083       .  S
C939        H947   1.083       .  S
C948        C949   1.416       .  A
C948        C953   1.409       .  A
C949        C950   1.391       .  A
C949        H962   1.083       .  S
C950        C951   1.392       .  A
C950        H963   1.084       .  S
C951        C952   1.408       .  A
C951        C954   1.452       .  S
C952        C953   1.414       .  A
C952        H964   1.083       .  S
C953        H965   1.076       .  S
C954        C955   1.214       .  T
C955        C956   1.453       .  S
C956        C957   1.398       .  A
C956        C961   1.405       .  A
C957        C958   1.400       .  A
C957        H966   1.084       .  S
C958        C959   1.413       .  A
C958        H967   1.081       .  S
C959        C960   1.409       .  A
C960        C961   1.407       .  A
C960        H968   1.082       .  S
C961        H969   1.083       .  S
C970        C971   1.407       .  A
C970        C975   1.412       .  A
C971        C972   1.408       .  A
C971        H984   1.081       .  S
C972        C973   1.406       .  A
C972        H985   1.083       .  S
C973        C974   1.399       .  A
C973        C976   1.455       .  S
C974        C975   1.401       .  A
C974        H986   1.083       .  S
C975        H987   1.083       .  S
C976        C977   1.215       .  T
C977        C978   1.454       .  S
C978        C979   1.409       .  A
C978        C983   1.393       .  A
C979        C980   1.415       .  A
C979        H988   1.083       .  S
C980        C981   1.410       .  A
C980        H989   1.077       .  S
C981        C982   1.414       .  A
C982        C983   1.391       .  A
C982        H990   1.083       .  S
C983        H991   1.084       .  S
