geometry optimzed in LAMMPS
_audit_creation_date              2020-11-30 
_audit_creation_method            'lammps2cif' 
_symmetry_space_group_name_H-M    'P1' 
_symmetry_Int_Tables_number       1 
_symmetry_cell_setting            triclinic 
loop_ 
_symmetry_equiv_pos_as_xyz 
  x,y,z 
_cell_length_a                    43.542429336664604 
_cell_length_b                    43.56759553568206 
_cell_length_c                    43.43661407643463 
_cell_angle_alpha                 90.06236125543046 
_cell_angle_beta                  90.23100334791857 
_cell_angle_gamma                 90.30003889562849 
loop_ 
_atom_site_label 
_atom_site_type_symbol 
_atom_site_fract_x 
_atom_site_fract_y 
_atom_site_fract_z 
_atom_site_charge 
C1          C  0.59415557  0.37504992  0.49733066     0.42040
N2          N  0.56528711  0.33790271  0.51105052     0.00930
C3          C  0.47255641  0.25111571  0.41489556    -0.06950
H4          H  0.44983285  0.36548961  0.41493408     0.06420
C5          C  0.42399779  0.36224238  0.52614016    -0.07300
Co6        Co  0.54016191  0.30426142  0.45700348     0.74180
N7          N  0.48441360  0.33676913  0.43590315    -0.26480
Co8        Co  0.46102940  0.30336153  0.46083957     0.74070
C9          C  0.41249304  0.37672245  0.49833363     0.42140
N10         N  0.48946964  0.33851257  0.56253876     0.00550
N11         N  0.43882440  0.33759858  0.48559663     0.00650
N12         N  0.52354308  0.25603550  0.40807362    -0.47320
H13         H  0.58624214  0.36530906  0.44589294     0.06410
N14         N  0.51462650  0.33712051  0.43479502     0.00940
N15         N  0.43765354  0.27055055  0.48639305     0.00680
C16         C  0.39666296  0.24551813  0.49886124     0.42280
N17         N  0.51969263  0.33801741  0.56125264    -0.25930
C18         C  0.59313340  0.26025233  0.47068026    -0.06850
N19         N  0.58333019  0.35986098  0.52205214    -0.47040
N20         N  0.41429566  0.25459095  0.47511937    -0.47260
C21         C  0.61012878  0.25146704  0.49838695     0.42050
N22         N  0.51453724  0.27096165  0.43304287     0.00920
N23         N  0.51876245  0.27134118  0.56201664    -0.25950
N24         N  0.56412984  0.33775671  0.48071150    -0.26450
N25         N  0.48855845  0.27243752  0.56460871     0.00560
H26         H  0.55410115  0.25265237  0.59080531     0.06450
H27         H  0.40346986  0.25827170  0.54990136     0.06490
N28         N  0.48443899  0.26988309  0.43625596    -0.26500
N29         N  0.44014117  0.33830574  0.51590305    -0.26110
N30         N  0.56681939  0.27149750  0.51130181     0.00930
C31         C  0.50126524  0.37520245  0.40729764     0.42330
C32         C  0.53089776  0.36069387  0.57900688    -0.07360
N33         N  0.43707732  0.27241769  0.51670006    -0.26110
H34         H  0.42039146  0.36832273  0.54999755     0.06470
N35         N  0.52573298  0.35963043  0.41772036    -0.47330
H36         H  0.55494856  0.36545616  0.58331592     0.06460
C37         C  0.50360692  0.24740770  0.60476454     0.42160
C38         C  0.58177967  0.36047702  0.46988646    -0.06860
Co39       Co  0.54282484  0.30429132  0.53656968     0.73820
N40         N  0.47894211  0.36043308  0.58075510    -0.47050
C41         C  0.49824530  0.24325160  0.39483586     0.42430
N42         N  0.59208190  0.25886223  0.52238548    -0.47040
Co43       Co  0.46354587  0.30516275  0.54023992     0.73890
C44         C  0.41225778  0.25705649  0.52668344    -0.07360
C45         C  0.47373935  0.36008661  0.41890222    -0.06930
N46         N  0.56688976  0.27265759  0.48086395    -0.26450
N47         N  0.42219881  0.36020418  0.47402925    -0.47220
H48         H  0.44824572  0.24806395  0.41067503     0.06430
C49         C  0.52997708  0.25423783  0.58499777    -0.07340
Cl50       Cl  0.50195193  0.30352934  0.49871842    -0.50340
C51         C  0.50380946  0.37546767  0.59171103     0.42190
H52         H  0.60176371  0.26279671  0.44750857     0.06400
N53         N  0.47881172  0.25903726  0.59013564    -0.47050
C54         C  0.59685116  0.48964188  0.38123546     0.42040
N55         N  0.56744409  0.47568460  0.34427707     0.00930
C56         C  0.47787174  0.57198887  0.25400941    -0.06950
H57         H  0.45208584  0.57472389  0.36694085     0.06420
C58         C  0.42301834  0.46220075  0.36588315    -0.07300
Co59       Co  0.54264650  0.52885394  0.30862681     0.74180
N60         N  0.48688181  0.55179960  0.34014453    -0.26480
Co61       Co  0.46354839  0.52591237  0.30684847     0.74070
C62         C  0.41050649  0.49014949  0.37914468     0.42140
N63         N  0.49036206  0.42601494  0.34525666     0.00550
N64         N  0.43992694  0.50213017  0.34149881     0.00650
N65         N  0.52888588  0.57648054  0.25966331    -0.47320
H66         H  0.58966076  0.54089108  0.37046818     0.06410
N67         N  0.51715736  0.55255975  0.34109714     0.00940
N68         N  0.44025892  0.49910296  0.27429074     0.00680
C69         C  0.39725816  0.48575308  0.25239827     0.42280
N70         N  0.52062208  0.42684713  0.34540124    -0.25930
C71         C  0.59010199  0.51451296  0.25837850    -0.06850
N72         N  0.58536398  0.46497441  0.36642030    -0.47040
N73         N  0.41601369  0.50951216  0.25938793    -0.47260
C74         C  0.60934822  0.48786819  0.25178144     0.42050
N75         N  0.51829340  0.55213124  0.27452914     0.00920
N76         N  0.52139680  0.42304585  0.27868179    -0.25950
N77         N  0.56674670  0.50592016  0.34334141    -0.26450
N78         N  0.49109450  0.42126528  0.27828806     0.00560
H79         H  0.55658333  0.39312388  0.26194786     0.06450
H80         H  0.40456871  0.43574960  0.26852821     0.06490
N81         N  0.48813439  0.54995867  0.27297159    -0.26500
N82         N  0.44094842  0.47189565  0.34281713    -0.26110
N83         N  0.56972945  0.47370373  0.27803519     0.00930
C84         C  0.50341146  0.58253517  0.37747356     0.42330
C85         C  0.53085401  0.41054964  0.36941805    -0.07360
N86         N  0.43942129  0.46898984  0.27723455    -0.26110
H87         H  0.41853547  0.43850915  0.37190462     0.06470
N88         N  0.52804725  0.57083141  0.36298618    -0.47330
H89         H  0.55467099  0.40627416  0.37506298     0.06460
C90         C  0.50613944  0.38149939  0.25202116     0.42160
C91         C  0.58474575  0.51692247  0.36602744    -0.06860
Co92       Co  0.54503081  0.44955008  0.31131324     0.73820
N93         N  0.47885555  0.40955444  0.36806958    -0.47050
C94         C  0.50480762  0.59124595  0.24671088     0.42430
N95         N  0.59477615  0.46342936  0.26432242    -0.47040
Co96       Co  0.46533546  0.44665329  0.31058634     0.73890
C97         C  0.41335883  0.45853646  0.26430799    -0.07360
C98         C  0.47603229  0.57017423  0.36238025    -0.06930
N99         N  0.56757225  0.50386817  0.27633861    -0.26450
N100        N  0.42173926  0.51405896  0.36281272    -0.47220
H101        H  0.45389455  0.57746802  0.25070868     0.06430
C102        C  0.53268631  0.39978998  0.26204314    -0.07340
Cl103      Cl  0.50411525  0.48776167  0.30893690    -0.50340
C104        C  0.50309008  0.39935267  0.38431516     0.42190
H105        H  0.59602791  0.53853645  0.25595623     0.06400
N106        N  0.48126783  0.39647276  0.26327716    -0.47050
C107        C  0.50508963  0.60600348  0.40162476     0.42040
N108        N  0.49249594  0.64321052  0.43110476     0.00930
C109        C  0.59689895  0.72222495  0.52346810    -0.06950
H110        H  0.59012773  0.61360053  0.54836179     0.06420
C111        C  0.47713991  0.62041306  0.57564413    -0.07300
Co112      Co  0.54735926  0.67502271  0.45768592     0.74180
N113        N  0.56813222  0.64099764  0.51332971    -0.26480
Co114      Co  0.54523042  0.67496481  0.53687615     0.74070
C115        C  0.50429747  0.60470972  0.58726762     0.42140
N116        N  0.44190444  0.64523686  0.50817247     0.00550
N117        N  0.51861526  0.64205934  0.55887381     0.00650
N118        N  0.59493125  0.72383171  0.47192466    -0.47320
H119        H  0.55663232  0.61385463  0.41071186     0.06410
N120        N  0.56913828  0.64075873  0.48303465     0.00940
N121        N  0.52175127  0.70901437  0.56105262     0.00680
C122        C  0.51074162  0.73444114  0.60254892     0.42280
N123        N  0.44294193  0.64506668  0.47779765    -0.25930
C124        C  0.53771871  0.72581133  0.41053773    -0.06850
N125        N  0.48093120  0.62192863  0.41247618    -0.47040
N126        N  0.53383974  0.72356229  0.58500736    -0.47260
C127        C  0.51213514  0.73852422  0.39251379     0.42050
N128        N  0.57163500  0.70790229  0.48307336     0.00920
N129        N  0.44367550  0.71069201  0.47811674    -0.25950
N130        N  0.52272643  0.64231049  0.43278752    -0.26450
N131        N  0.44415199  0.71227242  0.50854838     0.00560
H132        H  0.41029521  0.72445057  0.44448852     0.06450
H133        H  0.45919804  0.72496032  0.59538564     0.06490
N134        N  0.57215640  0.70668211  0.51337402    -0.26500
N135        N  0.48837186  0.64319339  0.55818249    -0.26110
N136        N  0.49498236  0.71003691  0.43002395     0.00930
C137        C  0.59775586  0.60352224  0.49702287     0.42330
C138        C  0.42456369  0.62264975  0.46710647    -0.07360
N139        N  0.49142424  0.70919833  0.56137667    -0.26110
H140        H  0.45312912  0.61608430  0.58034664     0.06470
N141        N  0.58694940  0.61871708  0.47219784    -0.47330
H142        H  0.42008952  0.61750320  0.44312896     0.06460
C143        C  0.40316074  0.73704295  0.49529024     0.42160
C144        C  0.53283780  0.61947270  0.41485543    -0.06860
Co145      Co  0.46823866  0.67753561  0.45386763     0.73820
N146        N  0.42341696  0.62370985  0.51920985    -0.47050
C147        C  0.61255152  0.73341649  0.49570418     0.42430
N148        N  0.48640972  0.72701921  0.40612925    -0.47040
Co149      Co  0.46607461  0.67785886  0.53427452     0.73890
C150        C  0.48240243  0.72475904  0.58660404    -0.07360
C151        C  0.58554120  0.61824530  0.52431757    -0.06930
N152        N  0.52507521  0.70851837  0.43235714    -0.26450
N153        N  0.52913156  0.61939448  0.57610518    -0.47220
H154        H  0.60545584  0.72144299  0.54686137     0.06430
C155        C  0.41903344  0.72595231  0.46779497    -0.07340
Cl156      Cl  0.50660388  0.67694391  0.49567680    -0.50340
C157        C  0.41188575  0.60854761  0.49462723     0.42190
H158        H  0.56185894  0.72481391  0.40562820     0.06400
N159        N  0.42073370  0.72815049  0.51935568    -0.47050
C160        C  0.61850832  0.39790216  0.49855528     0.42040
N161        N  0.65704555  0.42497508  0.48504842     0.00930
C162        C  0.73994367  0.51498095  0.58675823    -0.06950
H163        H  0.63129058  0.54125166  0.58140317     0.06420
C164        C  0.63643350  0.56800245  0.46883227    -0.07300
Co165      Co  0.69101603  0.44934516  0.53915040     0.74180
N166        N  0.65855329  0.50588806  0.56010507    -0.26480
Co167      Co  0.69238894  0.52867131  0.53601360     0.74070
C168        C  0.62180278  0.58032628  0.49610536     0.42140
N169        N  0.65855345  0.50119445  0.43366223     0.00550
N170        N  0.65918272  0.55187721  0.51016909     0.00650
N171        N  0.74029828  0.46347211  0.58662312    -0.47320
H172        H  0.62814700  0.40563047  0.55005277     0.06410
N173        N  0.65803662  0.47568154  0.56166310     0.00940
N174        N  0.72640557  0.55129238  0.51095597     0.00680
C175        C  0.75114666  0.59263568  0.49879013     0.42280
N176        N  0.65827619  0.47096390  0.43493622    -0.25930
C177        C  0.73621184  0.39616547  0.52584499    -0.06850
N178        N  0.63431221  0.40798247  0.47390198    -0.47040
N179        N  0.74216771  0.57468659  0.52238947    -0.47260
C180        C  0.74594789  0.37942554  0.49820405     0.42050
N181        N  0.72498331  0.47419023  0.56259965     0.00920
N182        N  0.72510872  0.47030742  0.43526742    -0.25950
N183        N  0.65704389  0.42616165  0.51538017    -0.26450
N184        N  0.72471043  0.50050453  0.43264324     0.00560
H185        H  0.74411875  0.43455954  0.40742129     0.06450
H186        H  0.73885752  0.58600930  0.44766337     0.06490
N187        N  0.72430586  0.50448630  0.56227773    -0.26500
N188        N  0.65922093  0.55062942  0.47984993    -0.26110
N189        N  0.72382940  0.42201396  0.48524794     0.00930
C190        C  0.62084200  0.49021234  0.59001469     0.42330
C191        C  0.63514250  0.46050038  0.41727213    -0.07360
N192        N  0.72494293  0.55199767  0.48059105    -0.26110
H193        H  0.63134045  0.57203902  0.44477902     0.06470
N194        N  0.63578978  0.46525462  0.57959436    -0.47330
H195        H  0.62957180  0.43662907  0.41306563     0.06460
C196        C  0.75041065  0.48487973  0.39326884     0.42160
C197        C  0.63348600  0.40959726  0.52608177    -0.06860
Co198      Co  0.69138436  0.44683729  0.45991846     0.73820
N199        N  0.63671765  0.51242579  0.41566503    -0.47050
C200        C  0.75036313  0.48766832  0.60340472     0.42430
N201        N  0.73756874  0.39729646  0.47421998    -0.47040
Co202      Co  0.69216752  0.52626565  0.45638791     0.73890
C203        C  0.74013284  0.57702941  0.47083695    -0.07360
C204        C  0.63588784  0.51720339  0.57740003    -0.06930
N205        N  0.72258527  0.42189072  0.51561788    -0.26450
N206        N  0.63710240  0.56967294  0.52095512    -0.47220
H207        H  0.73935037  0.53849311  0.59473936     0.06430
C208        C  0.74265082  0.45872501  0.41293222    -0.07340
Cl209      Cl  0.69218572  0.48773215  0.49787813    -0.50340
C210        C  0.62091927  0.48806362  0.40477387     0.42190
H211        H  0.73454155  0.38761704  0.54915352     0.06400
N212        N  0.73894733  0.50994297  0.40747476    -0.47050
C213        C  0.41393733  0.49336692  0.61371866     0.42040
N214        N  0.44152686  0.47986720  0.65204268     0.00930
C215        C  0.53468578  0.58255901  0.73101768    -0.06950
H216        H  0.55722717  0.57383415  0.62055474     0.06420
C217        C  0.58468767  0.46263007  0.62878611    -0.07300
Co218      Co  0.46780225  0.53378636  0.68550568     0.74180
N219        N  0.52304199  0.55395425  0.65051383    -0.26480
Co220      Co  0.54692289  0.53050746  0.68437428     0.74070
C221        C  0.59718888  0.48962390  0.61367289     0.42140
N222        N  0.51730259  0.42824923  0.65267004     0.00550
N223        N  0.56897630  0.50416005  0.65102701     0.00650
N224        N  0.48322391  0.58173890  0.73321614    -0.47320
H225        H  0.42223657  0.54469006  0.62322920     0.06410
N226        N  0.49283624  0.55555094  0.65113311     0.00940
N227        N  0.57062142  0.50580917  0.71828452     0.00680
C228        C  0.61281339  0.49387403  0.74202466     0.42280
N229        N  0.48705901  0.42970607  0.65302965    -0.25930
C230        C  0.41913188  0.52277253  0.73547746    -0.06850
N231        N  0.42417766  0.46880007  0.62948084    -0.47040
N232        N  0.59469223  0.51731172  0.73306493    -0.47260
C233        C  0.39926245  0.49661567  0.74308330     0.42050
N234        N  0.49368554  0.55754711  0.71823858     0.00920
N235        N  0.48773744  0.43073282  0.71991718    -0.25950
N236        N  0.44288783  0.51008929  0.65214158    -0.26450
N237        N  0.51796020  0.42790269  0.71902794     0.00560
H238        H  0.45198587  0.40346173  0.74001503     0.06450
H239        H  0.60536702  0.44274424  0.73085170     0.06490
N240        N  0.52393300  0.55749692  0.71654092    -0.26500
N241        N  0.56750858  0.47393770  0.65157743    -0.26110
N242        N  0.43937728  0.48086009  0.71847892     0.00930
C243        C  0.50574768  0.58209366  0.61195517     0.42330
C244        C  0.47586228  0.41189263  0.63036831    -0.07360
N245        N  0.57097469  0.47546606  0.71737424    -0.26110
H246        H  0.58869814  0.43858603  0.62415707     0.06470
N247        N  0.48146578  0.57242769  0.62850164    -0.47330
H248        H  0.45181100  0.40782525  0.62540323     0.06460
C249        C  0.50223778  0.38892579  0.74549768     0.42160
C250        C  0.42596388  0.52078335  0.62871739    -0.06860
Co251      Co  0.46369117  0.45504071  0.68617451     0.73820
N252        N  0.52779858  0.40997867  0.63075431    -0.47050
C253        C  0.50750166  0.59911078  0.74187120     0.42430
N254        N  0.41375401  0.47151433  0.73202104    -0.47040
Co255      Co  0.54362790  0.45104298  0.68552479     0.73890
C256        C  0.59658374  0.46589073  0.73191200    -0.07360
C257        C  0.53338977  0.57021529  0.62652416    -0.06930
N258        N  0.44213648  0.51101518  0.71888576    -0.26450
N259        N  0.58679606  0.51459237  0.62868585    -0.47220
H260        H  0.55806875  0.59085261  0.72926308     0.06430
C261        C  0.47620235  0.40870959  0.73798685    -0.07340
Cl262      Cl  0.50557579  0.49253679  0.68615119    -0.50340
C263        C  0.50293571  0.39908228  0.61566503     0.42190
H264        H  0.41374567  0.54694513  0.73667084     0.06400
N265        N  0.52729746  0.40281066  0.73339954    -0.47050
C266        C  0.39006347  0.40129313  0.49666297     0.42040
N267        N  0.35225179  0.42913093  0.51022987     0.00930
C268        C  0.26628733  0.51827603  0.41125998    -0.06950
H269        H  0.37698414  0.54328814  0.41114337     0.06420
C270        C  0.37439199  0.57257172  0.52419566    -0.07300
Co271      Co  0.31742099  0.45232978  0.45630724     0.74180
N272        N  0.34981356  0.50844777  0.43399770    -0.26480
Co273      Co  0.31638541  0.53169404  0.45934735     0.74070
C274        C  0.38807450  0.58483345  0.49633649     0.42140
N275        N  0.35333580  0.50544522  0.56077391     0.00550
N276        N  0.35060678  0.55535780  0.48378344     0.00650
N277        N  0.27155622  0.46725859  0.40561545    -0.47320
H278        H  0.37921644  0.40754722  0.44519512     0.06410
N279        N  0.35024282  0.47818737  0.43298370     0.00940
N280        N  0.28352109  0.55506848  0.48537838     0.00680
C281        C  0.26063616  0.59737189  0.49773176     0.42280
N282        N  0.35325418  0.47522754  0.55943093    -0.25930
C283        C  0.26873384  0.40120558  0.47250661    -0.06850
N284        N  0.37500313  0.41237035  0.52128407    -0.47040
N285        N  0.26835152  0.57880145  0.47416219    -0.47260
C286        C  0.25804836  0.38611043  0.50094806     0.42050
N287        N  0.28420473  0.47686694  0.43179365     0.00920
N288        N  0.28682838  0.47470541  0.56259299    -0.25950
N289        N  0.35148533  0.42941047  0.47991804    -0.26450
N290        N  0.28727332  0.50494596  0.56515426     0.00560
H291        H  0.27174661  0.43884267  0.59276920     0.06450
H292        H  0.27444043  0.59117094  0.54849787     0.06490
N293        N  0.28301173  0.50705622  0.43454659    -0.26500
N294        N  0.35144811  0.55458786  0.51412649    -0.26110
N295        N  0.28496672  0.42693437  0.51186077     0.00930
C296        C  0.38677572  0.49200628  0.40304081     0.42330
C297        C  0.37662569  0.46460967  0.57644213    -0.07360
N298        N  0.28588296  0.55614847  0.51572039    -0.26110
H299        H  0.38005684  0.57719055  0.54803540     0.06470
N300        N  0.37187963  0.46740662  0.41461994    -0.47330
H301        H  0.38167885  0.44071455  0.58076304     0.06460
C302        C  0.26401839  0.48894494  0.60620621     0.42160
C303        C  0.37457006  0.41234262  0.46915830    -0.06860
Co304      Co  0.31897829  0.45126137  0.53607102     0.73820
N305        N  0.37554842  0.51652974  0.57852829    -0.47050
C306        C  0.26002613  0.49208662  0.39092921     0.42430
N307        N  0.26931491  0.40381767  0.52401292    -0.47040
Co308      Co  0.31911574  0.53046878  0.53919574     0.73890
C309        C  0.27194259  0.58179963  0.52555104    -0.07360
C310        C  0.37220404  0.51933060  0.41571017    -0.06930
N311        N  0.28522534  0.42597132  0.48144776    -0.26450
N312        N  0.37216406  0.57346762  0.47209217    -0.47220
H313        H  0.26488785  0.54240333  0.40560143     0.06430
C314        C  0.27154557  0.46286855  0.58650115    -0.07340
Cl315      Cl  0.31739582  0.49146393  0.49772504    -0.50340
C316        C  0.39122651  0.49204311  0.58896832     0.42190
H317        H  0.26831000  0.39207484  0.44934552     0.06400
N318        N  0.27485708  0.51418178  0.59148458    -0.47050
C319        C  0.89127484  0.58530363  0.99759102     0.42040
N320        N  0.85281281  0.55789954  0.98421532     0.00930
C321        C  0.76882831  0.46377693  0.08182199    -0.06950
H322        H  0.88053742  0.44001298  0.07991531     0.06420
C323        C  0.87344349  0.41471018  0.96555562    -0.07300
Co324      Co  0.82040569  0.53130331  0.03871542     0.74180
N325        N  0.85333223  0.47525989  0.05817135    -0.26480
Co326      Co  0.81908399  0.45230900  0.03367612     0.74070
C327        C  0.88908746  0.40259775  0.99282977     0.42140
N328        N  0.84920712  0.48296033  0.93141806     0.00550
N329        N  0.85168387  0.43063600  0.00714557     0.00650
N330        N  0.77391464  0.51484366  0.08840083    -0.47320
H331        H  0.88317747  0.57603545  0.04906749     0.06410
N332        N  0.85401517  0.50544727  0.05981455     0.00940
N333        N  0.78561908  0.42866204  0.00896341     0.00680
C334        C  0.75823507  0.38972232  0.99430258     0.42280
N335        N  0.85001147  0.51317463  0.93315348    -0.25930
C336        C  0.76988076  0.57890523  0.02921855    -0.06850
N337        N  0.87493091  0.57556461  0.97306916    -0.47040
N338        N  0.77141774  0.40367619  0.01887873    -0.47260
C339        C  0.75967533  0.59890126  0.00387665     0.42050
N340        N  0.78791891  0.50561927  0.06303604     0.00920
N341        N  0.78401859  0.51434647  0.93382508    -0.25950
N342        N  0.85352025  0.55587540  0.01451123    -0.26450
N343        N  0.78179417  0.48414095  0.93383383     0.00560
H344        H  0.76900317  0.54851247  0.90167760     0.06450
H345        H  0.76105968  0.40536725  0.94367921     0.06490
N346        N  0.78666446  0.47552657  0.05975779    -0.26500
N347        N  0.85055940  0.43199588  0.97681982    -0.26110
N348        N  0.78662434  0.56077366  0.98630854     0.00930
C349        C  0.89096444  0.49113716  0.08866584     0.42330
C350        C  0.87297471  0.52371849  0.91555683    -0.07360
N351        N  0.78359893  0.43169939  0.97888414    -0.26110
H352        H  0.87817467  0.41073897  0.94145769     0.06470
N353        N  0.87602417  0.51597611  0.07811156    -0.47330
H354        H  0.87892619  0.54758640  0.91196940     0.06460
C355        C  0.75540542  0.49804567  0.89378552     0.42160
C356        C  0.87718165  0.57258852  0.02511263    -0.06860
Co357      Co  0.81811891  0.53695211  0.95906731     0.73820
N358        N  0.87080972  0.47181553  0.91323723    -0.47050
C359        C  0.76164276  0.48968985  0.10195860     0.42430
N360        N  0.77112489  0.58557370  0.97806941    -0.47040
Co361      Co  0.81596531  0.45751179  0.95481000     0.73890
C362        C  0.76507879  0.40959983  0.96786932    -0.07360
C363        C  0.87601729  0.46404352  0.07572952    -0.06930
N364        N  0.78718198  0.55729955  0.01640859    -0.26450
N365        N  0.87415491  0.41320277  0.01765545    -0.47220
H366        H  0.76660705  0.43952969  0.08674567     0.06430
C367        C  0.76769479  0.52513562  0.90995162    -0.07340
Cl368      Cl  0.81808403  0.49449857  0.99655939    -0.50340
C369        C  0.88671563  0.49622813  0.90264214     0.42190
H370        H  0.76833019  0.58139704  0.05375718     0.06400
N371        N  0.76434600  0.47391835  0.91105637    -0.47050
C372        C  0.00417605  0.39998908  0.88054126     0.42040
N373        N  0.99082778  0.42994537  0.84400163     0.00930
C374        C  0.09592726  0.51985707  0.76408779    -0.06950
H375        H  0.08920771  0.54371883  0.87491996     0.06420
C376        C  0.97926105  0.57374950  0.86770366    -0.07300
Co377      Co  0.04534134  0.45512365  0.81054600     0.74180
N378        N  0.06800809  0.50972450  0.84542569    -0.26480
Co379      Co  0.04523497  0.53424466  0.81203018     0.74070
C380        C  0.00692328  0.58544121  0.88278734     0.42140
N381        N  0.94174712  0.50750897  0.84356876     0.02710
N382        N  0.01998092  0.55676787  0.84527872     0.00650
N383        N  0.09279182  0.46848345  0.76201044    -0.47320
H384        H  0.05556981  0.40754674  0.87096099     0.06410
N385        N  0.06839429  0.47949281  0.84504767     0.00940
N386        N  0.02111878  0.55914737  0.77908271     0.00680
C387        C  0.00732651  0.59964864  0.75409263     0.42280
N388        N  0.94199632  0.47724331  0.84352300    -0.25930
C389        C  0.03201455  0.40862331  0.75899396    -0.06850
N390        N  0.97966773  0.41158032  0.86555383    -0.47040
N391        N  0.03166488  0.58443156  0.76585163    -0.47260
C392        C  0.00546437  0.38918290  0.75164606     0.42050
N393        N  0.06968836  0.48008590  0.77778500     0.00920
N394        N  0.94095089  0.47756106  0.77731610    -0.25950
N395        N  0.02111336  0.43065024  0.84373830    -0.26450
N396        N  0.94244441  0.50776645  0.77636826     0.00560
H397        H  0.90790932  0.44535192  0.75990491     0.06450
H398        H  0.95643280  0.58682537  0.75881704     0.06490
N399        N  0.07096841  0.51029672  0.77944475    -0.26500
N400        N  0.98970364  0.55618018  0.84467806    -0.26110
N401        N  0.99079862  0.42865944  0.77770032     0.00930
C402        C  0.09564158  0.49222430  0.88402983     0.42330
C403        C  0.92336516  0.46690599  0.86570535    -0.07360
N404        N  0.99087188  0.55730508  0.77777443    -0.26110
H405        H  0.95541397  0.57850173  0.87256408     0.06470
N406        N  0.08500865  0.46793173  0.86780915    -0.47330
H407        H  0.91804227  0.44308060  0.87039349     0.06460
C408        C  0.90306475  0.49678076  0.74746876     0.42160
C409        C  0.03168233  0.41240822  0.86618509    -0.06860
Co410      Co  0.96586205  0.45301696  0.81045756     0.73820
N411        N  0.92337109  0.51889862  0.86492821    -0.47050
C412        C  0.11083837  0.49188364  0.75263788     0.42430
N413        N  0.98076113  0.40359440  0.76354522    -0.47040
Co414      Co  0.96588825  0.53238261  0.81032499     0.73890
C415        C  0.98036733  0.58050683  0.76060475    -0.07360
C416        C  0.08475568  0.51992856  0.86921251    -0.06930
N417        N  0.02101911  0.43099066  0.77685804    -0.26450
N418        N  0.03128010  0.57421688  0.86759837    -0.47220
H419        H  0.10519583  0.54291129  0.76528764     0.06430
C420        C  0.91700698  0.46846495  0.75986228    -0.07340
Cl421      Cl  0.00554250  0.49368079  0.81032935    -0.50340
C422        C  0.91124871  0.49455115  0.87983413     0.42190
H423        H  0.05607746  0.40284690  0.75723409     0.06400
N424        N  0.92053702  0.51970809  0.75914624    -0.47050
C425        C  0.11753568  0.40037478  0.99943185     0.42040
N426        N  0.15602685  0.42777951  0.98629704     0.00930
C427        C  0.24329460  0.51734518  0.08524811    -0.06950
H428        H  0.13156090  0.54233767  0.08503652     0.06420
C429        C  0.13620233  0.57008231  0.97252263    -0.07300
Co430      Co  0.19076077  0.45151640  0.04046660     0.74180
N431        N  0.15889699  0.50750379  0.06286940    -0.26480
Co432      Co  0.19241049  0.53073045  0.03810411     0.74070
C433        C  0.12191058  0.58195535  0.00028628     0.42140
N434        N  0.15699238  0.50351076  0.93627400     0.00550
N435        N  0.15925325  0.55340914  0.01323109     0.00650
N436        N  0.24223400  0.46593838  0.08694621    -0.47320
H437        H  0.12767414  0.40705567  0.05105588     0.06410
N438        N  0.15824077  0.47728589  0.06377826     0.00940
N439        N  0.22537213  0.55433464  0.01255102     0.00680
C440        C  0.25243953  0.59309327  0.99749098     0.42280
N441        N  0.15656884  0.47330518  0.93699746    -0.25930
C442        C  0.23526330  0.39942099  0.02646413    -0.06850
N443        N  0.13314882  0.41110032  0.97501678    -0.47040
N444        N  0.24032380  0.57901095  0.02239354    -0.47260
C445        C  0.24375513  0.38238430  0.99894064     0.42050
N446        N  0.22523920  0.47628950  0.06385108     0.00920
N447        N  0.22255229  0.47237532  0.93316699    -0.25950
N448        N  0.15635166  0.42845635  0.01665739    -0.26450
N449        N  0.22404187  0.50263907  0.93349614     0.00560
H450        H  0.23572320  0.43923193  0.89885863     0.06450
H451        H  0.24609452  0.57953835  0.94683945     0.06490
N452        N  0.22518184  0.50651603  0.06283275    -0.26500
N453        N  0.15917626  0.55255295  0.98290011    -0.26110
N454        N  0.22252801  0.42489788  0.98557143     0.00930
C455        C  0.12120202  0.49107003  0.09272212     0.42330
C456        C  0.13295366  0.46293604  0.92008294    -0.07360
N457        N  0.22597362  0.55189244  0.98227606    -0.26110
H458        H  0.13073488  0.57448689  0.94861626     0.06470
N459        N  0.13607828  0.46642710  0.08155871    -0.47330
H460        H  0.12737829  0.43910630  0.91565648     0.06460
C461        C  0.24803531  0.49010786  0.89155700     0.42160
C462        C  0.13281277  0.41158534  0.02714229    -0.06860
Co463      Co  0.18986785  0.44926782  0.96040093     0.73820
N464        N  0.13453259  0.51491795  0.91922855    -0.47050
C465        C  0.25500067  0.49034866  0.10176793     0.42430
N466        N  0.23528864  0.39972412  0.97466769    -0.47040
Co467      Co  0.19186806  0.52788177  0.95849446     0.73890
C468        C  0.24432325  0.57383284  0.97100369    -0.07360
C469        C  0.13630553  0.51838900  0.08064124    -0.06930
N470        N  0.22188234  0.42505720  0.01604007    -0.26450
N471        N  0.13743827  0.57099722  0.02467766    -0.47220
H472        H  0.24355545  0.54117513  0.09199472     0.06430
C473        C  0.23712827  0.46241029  0.90772133    -0.07340
Cl474      Cl  0.19174290  0.48981451  0.99932862    -0.50340
C475        C  0.11841241  0.49056091  0.90857121     0.42190
H476        H  0.23368131  0.39106748  0.04985088     0.06400
N477        N  0.23863096  0.51381326  0.90923231    -0.47050
C478        C  0.00599426  0.58254569  0.11613441     0.42040
N479        N  0.99229387  0.55390296  0.15344693     0.00930
C480        C  0.09053488  0.46105834  0.23787834    -0.06950
H481        H  0.08806759  0.43828183  0.12449865     0.06420
C482        C  0.97606093  0.41118231  0.12795935    -0.07300
Co483      Co  0.04593415  0.52776506  0.18742549     0.74180
N484        N  0.06695479  0.47266748  0.15324313    -0.26480
Co485      Co  0.04217592  0.44891423  0.18649510     0.74070
C486        C  0.00345529  0.39893142  0.11366518     0.42140
N487        N  0.94118686  0.47778391  0.15138541     0.00550
N488        N  0.01695675  0.42667928  0.15201023     0.00650
N489        N  0.09333896  0.51246162  0.23609636    -0.47320
H490        H  0.05733028  0.57435717  0.12583140     0.06410
N491        N  0.06854875  0.50288470  0.15361889     0.00940
N492        N  0.01622315  0.42569868  0.21930532     0.00680
C493        C  0.00269126  0.38458190  0.24338789     0.42280
N494        N  0.94248802  0.50800334  0.15225774    -0.25930
C495        C  0.03359164  0.57485835  0.23864497    -0.06850
N496        N  0.98137003  0.57176290  0.13138831    -0.47040
N497        N  0.02687657  0.40208637  0.23503557    -0.47260
C498        C  0.00727919  0.59428520  0.24605199     0.42050
N499        N  0.06921125  0.50222098  0.22054570     0.00920
N500        N  0.94163686  0.50678900  0.21919402    -0.25950
N501        N  0.02254232  0.55265748  0.15380092    -0.26450
N502        N  0.93897622  0.47661665  0.21770880     0.00560
H503        H  0.91384481  0.54172653  0.23963367     0.06450
H504        H  0.95205080  0.39208022  0.23053023     0.06490
N505        N  0.06765672  0.47201343  0.22028892    -0.26500
N506        N  0.98673259  0.42810579  0.15141714    -0.26110
N507        N  0.99206465  0.55492192  0.21976846     0.00930
C508        C  0.09708772  0.48966319  0.11601356     0.42330
C509        C  0.92568738  0.51916168  0.12895522    -0.07360
N510        N  0.98596483  0.42540847  0.21727073    -0.26110
H511        H  0.95213415  0.40725579  0.12230932     0.06470
N512        N  0.08661910  0.51407436  0.13184216    -0.47330
H513        H  0.92185348  0.54317479  0.12404224     0.06460
C514        C  0.89981909  0.49110042  0.24415275     0.42160
C515        C  0.03336993  0.57017352  0.13089884    -0.06860
Co516      Co  0.96683090  0.53119274  0.18649589     0.73820
N517        N  0.92396152  0.46719272  0.12852673    -0.47050
C518        C  0.10874743  0.48801141  0.24731327     0.42430
N519        N  0.98238538  0.57995623  0.23396349    -0.47040
Co520      Co  0.96286755  0.45175315  0.18466742     0.73890
C521        C  0.97537527  0.40062622  0.23215262    -0.07360
C522        C  0.08416309  0.46215552  0.13002272    -0.06930
N523        N  0.02223299  0.55247439  0.22075895    -0.26450
N524        N  0.02802484  0.40915908  0.12976322    -0.47220
H525        H  0.09734832  0.43722280  0.23853873     0.06430
C526        C  0.91936662  0.51766582  0.23723603    -0.07340
Cl527      Cl  0.00443799  0.48990080  0.18678668    -0.50340
C528        C  0.91373904  0.49204059  0.11331360     0.42190
H529        H  0.05773569  0.58057412  0.24053651     0.06400
N530        N  0.91399278  0.46653048  0.23175494    -0.47050
C531        C  0.00449267  0.37583030  0.08941685     0.42040
N532        N  0.99018339  0.33927731  0.05978149     0.00930
C533        C  0.09102769  0.25668648  0.96965648    -0.06950
H534        H  0.08653787  0.36765313  0.94572596     0.06420
C535        C  0.97510825  0.36080484  0.91544154    -0.07300
Co536      Co  0.04331221  0.30483402  0.03526354     0.74180
N537        N  0.06525126  0.33851721  0.97981267    -0.26480
Co538      Co  0.04105308  0.30517217  0.95563869     0.74070
C539        C  0.00261022  0.37561760  0.90357497     0.42140
N540        N  0.93963037  0.34000739  0.98216368     0.00550
N541        N  0.01590328  0.33837582  0.93259381     0.00650
N542        N  0.09035115  0.25587391  0.02126139    -0.47320
H543        H  0.05562054  0.36509234  0.08233849     0.06410
N544        N  0.06635938  0.33815466  0.01015137     0.00940
N545        N  0.01529456  0.27218774  0.93181994     0.00680
C546        C  0.00043073  0.24582193  0.89235977     0.42280
N547        N  0.94101069  0.34063337  0.01248810    -0.25930
C548        C  0.02809590  0.25664851  0.08526166    -0.06850
N549        N  0.97959919  0.36125652  0.07785461    -0.47040
N550        N  0.02519132  0.25776432  0.90698767    -0.47260
C551        C  0.00001323  0.24605262  0.10054767     0.42050
N552        N  0.06670557  0.27141243  0.01020058     0.00920
N553        N  0.93742849  0.27377600  0.01370534    -0.25950
N554        N  0.02040479  0.33847836  0.05926614    -0.26450
N555        N  0.93518751  0.27338875  0.98345527     0.00560
H556        H  0.90767869  0.25810091  0.04963472     0.06450
H557        H  0.94982838  0.25132000  0.90561437     0.06490
N558        N  0.06672938  0.27249998  0.97982565    -0.26500
N559        N  0.98563034  0.33797543  0.93318168    -0.26110
N560        N  0.98829877  0.27216581  0.06003924     0.00930
C561        C  0.09420085  0.37642819  0.99745770     0.42330
C562        C  0.92494685  0.36482783  0.02250820    -0.07360
N563        N  0.98500529  0.27128325  0.93399827    -0.26110
H564        H  0.95122410  0.36591601  0.91095842     0.06470
N565        N  0.08366144  0.36042036  0.02172248    -0.47330
H566        H  0.92104558  0.37082834  0.04633583     0.06460
C567        C  0.89483709  0.24854766  0.99941114     0.42160
C568        C  0.03160511  0.36078134  0.07739665    -0.06860
Co569      Co  0.96407314  0.30627726  0.03675573     0.73820
N570        N  0.92298591  0.36256841  0.97043278    -0.47050
C571        C  0.10714462  0.24563467  0.99729816     0.42430
N572        N  0.97655620  0.25607950  0.08293605    -0.47040
Co573      Co  0.96104559  0.30520988  0.95789484     0.73890
C574        C  0.97390451  0.25322991  0.91159959    -0.07360
C575        C  0.08238382  0.36196079  0.96958644    -0.06930
N576        N  0.01860156  0.27276142  0.06076457    -0.26450
N577        N  0.02708713  0.36045150  0.91487024    -0.47220
H578        H  0.09928738  0.25746830  0.94622645     0.06430
C579        C  0.91400252  0.25776902  0.02557828    -0.07340
Cl580      Cl  0.00239002  0.30468813  0.99631604    -0.50340
C581        C  0.91315566  0.37927864  0.99454130     0.42190
H582        H  0.05134875  0.25684643  0.09413323     0.06400
N583        N  0.90949227  0.25954540  0.97411365    -0.47050
C584        C  0.91521908  0.60869833  0.99648554     0.42040
N585        N  0.94420858  0.64549512  0.01106251     0.00930
C586        C  0.04113934  0.73003900  0.91734543    -0.06950
H587        H  0.06043238  0.61680401  0.91611908     0.06420
C588        C  0.08653467  0.62000642  0.02977290    -0.07300
Co589      Co  0.97144040  0.67975184  0.95817964     0.74180
N590        N  0.02635912  0.64550291  0.93770157    -0.26480
Co591      Co  0.05051087  0.67790149  0.96380092     0.74070
C592        C  0.09858836  0.60559029  0.00210183     0.42140
N593        N  0.01918079  0.64350701  0.06412590     0.00550
N594        N  0.07106106  0.64358875  0.98891180     0.00650
N595        N  0.98990695  0.72730764  0.91054411    -0.47320
H596        H  0.92379396  0.61897677  0.94522759     0.06410
N597        N  0.99614778  0.64614024  0.93582715     0.00940
N598        N  0.07485915  0.70943216  0.99051025     0.00680
C599        C  0.11437662  0.73483420  0.00689433     0.42280
N600        N  0.98896604  0.64405683  0.06238375    -0.25930
C601        C  0.92435961  0.73095112  0.97058548    -0.06850
N602        N  0.92606759  0.62346709  0.02148530    -0.47040
N603        N  0.10030325  0.72341833  0.98153055    -0.47260
C604        C  0.90456204  0.73803969  0.99688518     0.42050
N605        N  0.99847234  0.71225194  0.93555156     0.00920
N606        N  0.98997840  0.71084589  0.06347548    -0.25950
N607        N  0.94561396  0.64629701  0.98075617    -0.26450
N608        N  0.02004140  0.70949054  0.06694661     0.00560
H609        H  0.95419225  0.73142739  0.09006224     0.06450
H610        H  0.09871896  0.72959844  0.05715227     0.06490
N611        N  0.02859700  0.71216306  0.93895096    -0.26500
N612        N  0.06966292  0.64340716  0.01922279    -0.26110
N613        N  0.94350423  0.71154196  0.01209973     0.00930
C614        C  0.00889625  0.60891652  0.90672212     0.42330
C615        C  0.97769741  0.62114062  0.07967324    -0.07360
N616        N  0.07170239  0.70999210  0.02067837    -0.26110
H617        H  0.09047111  0.61438559  0.05371775     0.06470
N618        N  0.98470848  0.62476681  0.91733918    -0.47330
H619        H  0.95364381  0.61624774  0.08356834     0.06460
C620        C  0.00437067  0.73568179  0.10594611     0.42160
C621        C  0.92784858  0.62372940  0.96935882    -0.06860
Co622      Co  0.96638536  0.67821444  0.03747313     0.73820
N623        N  0.02966778  0.62136600  0.08204097    -0.47050
C624        C  0.01557954  0.73874341  0.89729334     0.42430
N625        N  0.91848845  0.72566241  0.02174205    -0.47040
Co626      Co  0.04538820  0.67689248  0.04306852     0.73890
C627        C  0.09415559  0.72734763  0.03277283    -0.07360
C628        C  0.03661965  0.62258662  0.91991258    -0.06930
N629        N  0.94652338  0.71296287  0.98192359    -0.26450
N630        N  0.08838589  0.62148360  0.97765907    -0.47220
H631        H  0.06547661  0.73140626  0.91260695     0.06430
C632        C  0.97843559  0.72883606  0.08547815    -0.07340
Cl633      Cl  0.00843079  0.67869391  0.00062449    -0.50340
C634        C  0.00482199  0.60618560  0.09240487     0.42190
H635        H  0.91903580  0.73322085  0.94634902     0.06400
N636        N  0.02938466  0.72342302  0.09240755    -0.47050
C637        C  0.50789640  0.87868043  0.90741095     0.42040
N638        N  0.52082406  0.83994552  0.93420006     0.00930
C639        C  0.42433090  0.75043451  0.02393439    -0.06950
H640        H  0.42274774  0.86305578  0.05009852     0.06420
C641        C  0.53540381  0.85915895  0.07834807    -0.07300
Co642      Co  0.46689235  0.80511221  0.95848292     0.74180
N643        N  0.44529224  0.83603536  0.01511210    -0.26480
Co644      Co  0.47046908  0.80222923  0.03821724     0.74070
C645        C  0.50749624  0.87291946  0.09061923     0.42140
N646        N  0.57146100  0.83798118  0.01034709     0.00550
N647        N  0.49505661  0.83560288  0.06133047     0.00650
N648        N  0.41844723  0.75675048  0.97281774    -0.47320
H649        H  0.45633839  0.86929184  0.91487568     0.06410
N650        N  0.44452537  0.83715453  0.98480409     0.00940
N651        N  0.49635834  0.76957484  0.06239346     0.00680
C652        C  0.51236516  0.74408609  0.10222611     0.42280
N653        N  0.57046069  0.83847275  0.98001472    -0.25930
C654        C  0.47812506  0.75890599  0.90691482    -0.06850
N655        N  0.53217466  0.86259901  0.91746247    -0.47040
N656        N  0.48718485  0.75555931  0.08794008    -0.47260
C657        C  0.50411639  0.75220613  0.88690572     0.42050
N658        N  0.44338937  0.77109243  0.98296099     0.00920
N659        N  0.57103151  0.77200993  0.97755732    -0.25950
N660        N  0.49057718  0.83987371  0.93537166    -0.26450
N661        N  0.57368185  0.77193848  0.00788901     0.00560
H662        H  0.59953128  0.75485632  0.94135010     0.06450
H663        H  0.56256534  0.75112898  0.08789748     0.06490
N664        N  0.44623779  0.76913185  0.01318994    -0.26500
N665        N  0.52532845  0.83613709  0.06035529    -0.26110
N666        N  0.52032753  0.77420928  0.92862927     0.00930
C667        C  0.41529990  0.87371797  0.99865229     0.42330
C668        C  0.58780736  0.86190113  0.97001009    -0.07360
N669        N  0.52653919  0.76930868  0.05960463    -0.26110
H670        H  0.55919092  0.86502119  0.08279608     0.06470
N671        N  0.42669890  0.85914755  0.97398359    -0.47330
H672        H  0.59200395  0.86776575  0.94620003     0.06460
C673        C  0.61361540  0.74764525  0.99174224     0.42160
C674        C  0.48019220  0.86376962  0.91901025    -0.06860
Co675      Co  0.54588726  0.80573997  0.95490647     0.73820
N676        N  0.58904200  0.85996616  0.02209500    -0.47050
C677        C  0.40462995  0.74364029  0.99737191     0.42430
N678        N  0.52945014  0.76257228  0.90191152    -0.47040
Co679      Co  0.54955249  0.80353344  0.03473071     0.73890
C680        C  0.53835704  0.75215837  0.08230940    -0.07360
C681        C  0.42735142  0.85850326  0.02607914    -0.06930
N682        N  0.49011724  0.77353841  0.93127658    -0.26450
N683        N  0.48341033  0.85705645  0.07933082    -0.47220
H684        H  0.41887890  0.74772903  0.04805886     0.06430
C685        C  0.59392264  0.75553817  0.96557290    -0.07340
Cl686      Cl  0.50822359  0.80364805  0.99658576    -0.50340
C687        C  0.59982415  0.87605924  0.99796000     0.42190
H688        H  0.45402676  0.75913045  0.90075082     0.06400
N689        N  0.59912904  0.75816915  0.01709119    -0.47050
C690        C  0.60105816  0.99574413  0.88352976     0.42040
N691        N  0.57286666  0.98176588  0.84556517     0.00930
C692        C  0.47968322  0.07784285  0.76005389    -0.06950
H693        H  0.45659170  0.07432888  0.87435294     0.06420
C694        C  0.42901160  0.96428865  0.86771131    -0.07300
Co695      Co  0.54712410  0.03503327  0.81178950     0.74180
N696        N  0.49112754  0.05505284  0.84458694    -0.26480
Co697      Co  0.46735641  0.03034410  0.81079667     0.74070
C698        C  0.41628151  0.99160933  0.88201819     0.42140
N699        N  0.49665828  0.93010882  0.84582981     0.00550
N700        N  0.44489104  0.00524667  0.84456008     0.00650
N701        N  0.53081725  0.08395525  0.76487113    -0.47320
H702        H  0.59283648  0.04694427  0.87385905     0.06410
N703        N  0.52139184  0.05666846  0.84486201     0.00940
N704        N  0.44366503  0.00408830  0.77781522     0.00680
C705        C  0.40584163  0.98740830  0.74930199     0.42280
N706        N  0.52691302  0.93145643  0.84585670    -0.25930
C707        C  0.59838821  0.02189940  0.76476819    -0.06850
N708        N  0.59046222  0.97102649  0.86798780    -0.47040
N709        N  0.41945038  0.01286498  0.76147959    -0.47260
C710        C  0.61462796  0.99440314  0.75433913     0.42050
N711        N  0.52143567  0.05849004  0.77865331     0.00920
N712        N  0.52721242  0.92967276  0.77905655    -0.25950
N713        N  0.57158506  0.01197356  0.84544471    -0.26450
N714        N  0.49707157  0.92673985  0.77963528     0.00560
H715        H  0.56314641  0.90176608  0.76054069     0.06450
H716        H  0.42117736  0.93729796  0.75927586     0.06490
N717        N  0.49123848  0.05541765  0.77756942    -0.26500
N718        N  0.44647315  0.97504979  0.84476596    -0.26110
N719        N  0.57317192  0.98131355  0.77819337     0.00930
C720        C  0.50799538  0.08281137  0.88384031     0.42330
C721        C  0.53743187  0.91442421  0.86928391    -0.07360
N722        N  0.44638647  0.97401579  0.77822087    -0.26110
H723        H  0.42510024  0.94034922  0.87310576     0.06470
N724        N  0.53249478  0.07328808  0.86787082    -0.47330
H725        H  0.56131777  0.91034450  0.87478255     0.06460
C726        C  0.51278392  0.88705718  0.75437650     0.42160
C727        C  0.58884295  0.02296868  0.86862710    -0.06860
Co728      Co  0.55034598  0.95590165  0.81187771     0.73820
N729        N  0.48541559  0.91273755  0.86805389    -0.47050
C730        C  0.50577501  0.09793862  0.75299738     0.42430
N731        N  0.59693218  0.97043550  0.76292672    -0.47040
Co732      Co  0.47146516  0.95127438  0.81182785     0.73890
C733        C  0.42475578  0.96169496  0.76029399    -0.07360
C734        C  0.48048848  0.07110847  0.86855116    -0.06930
N735        N  0.57338356  0.01158910  0.77951045    -0.26450
N736        N  0.42681585  0.01619660  0.86639801    -0.47220
H737        H  0.45550138  0.08321301  0.75842599     0.06430
C738        C  0.53893383  0.90691587  0.76210528    -0.07340
Cl739      Cl  0.50906449  0.99311997  0.81115925    -0.50340
C740        C  0.50978215  0.90239043  0.88392484     0.42190
H741        H  0.60700308  0.04519516  0.76620310     0.06400
N742        N  0.48768190  0.90121694  0.76581051    -0.47050
C743        C  0.50931560  0.10452523  0.90920061     0.42040
N744        N  0.49464026  0.14047976  0.93867093     0.00930
C745        C  0.59517654  0.22487835  0.02933960    -0.06950
H746        H  0.58929614  0.11831024  0.05690800     0.06420
C747        C  0.47604359  0.12162241  0.08172217    -0.07300
Co748      Co  0.54634055  0.17724536  0.96452673     0.74180
N749        N  0.56756754  0.14556933  0.02150355    -0.26480
Co750      Co  0.54234076  0.17906625  0.04387933     0.74070
C751        C  0.50355381  0.10710409  0.09399114     0.42140
N752        N  0.44240112  0.14138338  0.01372418     0.00550
N753        N  0.51683314  0.14536956  0.06616144     0.00650
N754        N  0.59311096  0.22531282  0.97767576    -0.47320
H755        H  0.56040041  0.11644137  0.91711968     0.06410
N756        N  0.56894864  0.14496056  0.99118932     0.00940
N757        N  0.51515322  0.21260328  0.06616782     0.00680
C758        C  0.49851438  0.23844636  0.10570245     0.42280
N759        N  0.44479920  0.13986417  0.98353275    -0.25930
C760        C  0.53330378  0.22721952  0.91596358    -0.06850
N761        N  0.48436086  0.11854144  0.92031958    -0.47040
N762        N  0.52396819  0.22819933  0.09099515    -0.47260
C763        C  0.50699137  0.23367978  0.89591370     0.42050
N764        N  0.56867123  0.21160135  0.98927931     0.00920
N765        N  0.44040940  0.20476135  0.97978350    -0.25950
N766        N  0.52476547  0.14216662  0.93992482    -0.26450
N767        N  0.43799744  0.20750655  0.00989588     0.00560
H768        H  0.40945628  0.20988949  0.94281899     0.06450
H769        H  0.44869535  0.22670737  0.09327303     0.06490
N770        N  0.56909261  0.21105047  0.01971786    -0.26500
N771        N  0.48658843  0.14501835  0.06463415    -0.26110
N772        N  0.49228888  0.20631648  0.93453513     0.00930
C773        C  0.59761122  0.10812007  0.00558887     0.42330
C774        C  0.42868682  0.11575459  0.97328089    -0.07360
N775        N  0.48485457  0.21144115  0.06367311    -0.26110
H776        H  0.45216509  0.11559676  0.08511062     0.06470
N777        N  0.58678998  0.12289848  0.98066976    -0.47330
H778        H  0.42534814  0.10937042  0.94942106     0.06460
C779        C  0.39529692  0.22592983  0.99119297     0.42160
C780        C  0.53632944  0.12008382  0.92187792    -0.06860
Co781      Co  0.46803719  0.17305649  0.95902851     0.73820
N782        N  0.42497762  0.11928338  0.02520512    -0.47050
C783        C  0.61137901  0.23395917  0.00119375     0.42430
N784        N  0.48239052  0.22024010  0.90933642    -0.47040
Co785      Co  0.46262020  0.17689527  0.03830201     0.73890
C786        C  0.47264543  0.22771567  0.08679459    -0.07360
C787        C  0.58519054  0.12305784  0.03280046    -0.06930
N788        N  0.52229104  0.20878678  0.93795578    -0.26450
N789        N  0.52798391  0.12300741  0.08350843    -0.47220
H790        H  0.60431757  0.22351216  0.05248955     0.06430
C791        C  0.41517174  0.21559289  0.96629159    -0.07340
Cl792      Cl  0.50483533  0.17749065  0.00160250    -0.50340
C793        C  0.41593955  0.10220943  0.00095801     0.42190
H794        H  0.55744580  0.23064003  0.91121498     0.06400
N795        N  0.41128120  0.21975682  0.01737840    -0.47050
C796        C  0.50517116  0.89646710  0.11439001     0.42040
N797        N  0.51784948  0.92520584  0.15213431     0.00930
C798        C  0.41806236  0.01644459  0.23624288    -0.06950
H799        H  0.42041678  0.04014615  0.12461562     0.06420
C800        C  0.53257999  0.07016562  0.13161063    -0.07300
Co801      Co  0.46352762  0.95006374  0.18565251     0.74180
N802        N  0.44237607  0.00575385  0.15278749    -0.26480
Co803      Co  0.46657417  0.02972786  0.18673856     0.74070
C804        C  0.50512872  0.08272670  0.11709687     0.42140
N805        N  0.56756058  0.00183763  0.15306828     0.00550
N806        N  0.49161966  0.05267931  0.15349724     0.00650
N807        N  0.41313329  0.96525506  0.23131614    -0.47320
H808        H  0.45353125  0.90352959  0.12326216     0.06410
N809        N  0.44153228  0.97548952  0.15230845     0.00940
N810        N  0.49194728  0.05416919  0.21980913     0.00680
C811        C  0.50774389  0.09332293  0.24651430     0.42280
N812        N  0.56682308  0.97159398  0.15280115    -0.25930
C813        C  0.47568727  0.90051836  0.23426968    -0.06850
N814        N  0.52933281  0.90768519  0.13018063    -0.47040
N815        N  0.48266739  0.07934985  0.23410729    -0.47260
C816        C  0.50211590  0.88115893  0.24151962     0.42050
N817        N  0.43887866  0.97514736  0.21840273     0.00920
N818        N  0.56981662  0.97081251  0.21837301    -0.25950
N819        N  0.48759230  0.92593283  0.15197884    -0.26450
N820        N  0.56937804  0.00113395  0.21982547     0.00560
H821        H  0.60500882  0.93806475  0.22961582     0.06450
H822        H  0.55795249  0.07774941  0.24211521     0.06490
N823        N  0.44132237  0.00538773  0.21956106    -0.26500
N824        N  0.52184950  0.05176001  0.15390743    -0.26110
N825        N  0.51748524  0.92232141  0.21818926     0.00930
C826        C  0.41300842  0.98869050  0.11474964     0.42330
C827        C  0.58444013  0.96133910  0.12986362    -0.07360
N828        N  0.52205476  0.05131087  0.22089353    -0.26110
H829        H  0.55651427  0.07490793  0.12690159     0.06470
N830        N  0.42397326  0.96427579  0.13004417    -0.47330
H831        H  0.58912277  0.93754740  0.12462665     0.06460
C832        C  0.61224948  0.98893398  0.24141472     0.42160
C833        C  0.47735622  0.90824503  0.12875384    -0.06860
Co834      Co  0.54310105  0.94723788  0.18581999     0.73820
N835        N  0.58525532  0.01332981  0.13121285    -0.47050
C836        C  0.39826533  0.98994852  0.24273087     0.42430
N837        N  0.52708041  0.89654045  0.23108651    -0.47040
Co838      Co  0.54535152  0.02655168  0.18725181     0.73890
C839        C  0.53368998  0.07333993  0.23908028    -0.07360
C840        C  0.42491643  0.01627733  0.12966922    -0.06930
N841        N  0.48717645  0.92435218  0.21851903    -0.26450
N842        N  0.48059036  0.07115191  0.13199011    -0.47220
H843        H  0.41213855  0.04048924  0.23760432     0.06430
C844        C  0.59594065  0.96102971  0.23172587    -0.07340
Cl845      Cl  0.50460254  0.98833780  0.18720657    -0.50340
C846        C  0.59635408  0.98905594  0.11565429     0.42190
H847        H  0.45156777  0.89457844  0.23518654     0.06400
N848        N  0.59408728  0.01255310  0.23345269    -0.47050
C849        C  0.39157799  0.89722710  0.99679854     0.42040
N850        N  0.35372451  0.92535207  0.00943814     0.00930
C851        C  0.27028844  0.02005316  0.91266124    -0.06950
H852        H  0.38260395  0.04361869  0.91486720     0.06420
C853        C  0.37641321  0.06728467  0.02910895    -0.07300
Co854      Co  0.32129660  0.95185960  0.95466269     0.74180
N855        N  0.35475307  0.00817242  0.93582143    -0.26480
Co856      Co  0.32074306  0.03078745  0.96073429     0.74070
C857        C  0.39189315  0.07918927  0.00201372     0.42140
N858        N  0.35211000  0.00026629  0.06227968     0.00550
N859        N  0.35381851  0.05213099  0.98734836     0.00650
N860        N  0.27384051  0.96927027  0.90508090    -0.47320
H861        H  0.38360408  0.90600309  0.94509086     0.06410
N862        N  0.35518700  0.97797886  0.93392135     0.00940
N863        N  0.28743269  0.05386354  0.98632050     0.00680
C864        C  0.25937787  0.09248366  0.00094815     0.42280
N865        N  0.35221544  0.97008398  0.06044929    -0.25930
C866        C  0.27081612  0.90310526  0.96476804    -0.06850
N867        N  0.37543174  0.90754037  0.02098616    -0.47040
N868        N  0.27183171  0.07784198  0.97643660    -0.47260
C869        C  0.26275205  0.88334728  0.99084065     0.42050
N870        N  0.28893567  0.97782907  0.93027675     0.00920
N871        N  0.28543403  0.96939725  0.05887717    -0.25950
N872        N  0.35436666  0.92701887  0.97911567    -0.26450
N873        N  0.28600984  0.99951461  0.06214202     0.00560
H874        H  0.26486846  0.93317967  0.08522236     0.06450
H875        H  0.26818732  0.07892682  0.05207312     0.06490
N876        N  0.28823017  0.00776671  0.93418826    -0.26500
N877        N  0.35313862  0.05059008  0.01763081    -0.26110
N878        N  0.28769835  0.92307657  0.00715631     0.00930
C879        C  0.39256735  0.99256312  0.90572295     0.42330
C880        C  0.37510481  0.95943700  0.07813117    -0.07360
N881        N  0.28702021  0.05182387  0.01651965    -0.26110
H882        H  0.38150898  0.07087576  0.05324579     0.06470
N883        N  0.37731746  0.96763790  0.91595258    -0.47330
H884        H  0.38062534  0.93554968  0.08186132     0.06460
C885        C  0.25858695  0.98333517  0.10010677     0.42160
C886        C  0.37770764  0.90985042  0.96894503    -0.06860
Co887      Co  0.31947655  0.94667806  0.03420858     0.73820
N888        N  0.37380718  0.01135722  0.08057285    -0.47050
C889        C  0.26132936  0.99468467  0.89200300     0.42430
N890        N  0.27354262  0.89776794  0.01622160    -0.47040
Co891      Co  0.31926517  0.02574737  0.03994621     0.73890
C892        C  0.26955234  0.07438497  0.02780454    -0.07360
C893        C  0.37766636  0.01954758  0.91860857    -0.06930
N894        N  0.28774530  0.92586211  0.97689527    -0.26450
N895        N  0.37662559  0.06922810  0.97695830    -0.47220
H896        H  0.26744425  0.04442005  0.91067663     0.06430
C897        C  0.26696340  0.95744195  0.08034404    -0.07340
Cl898      Cl  0.31960989  0.98870555  0.99732362    -0.50340
C899        C  0.38932038  0.98694264  0.09110782     0.42190
H900        H  0.26965018  0.89774838  0.94047294     0.06400
N901        N  0.27079676  0.00858928  0.08678750    -0.47050
C902        C  0.62074319  0.99103798  0.09301909     0.42040
N903        N  0.65923678  0.97869970  0.06556939     0.00930
C904        C  0.73873591  0.08491989  0.97861813    -0.06950
H905        H  0.63104793  0.07798018  0.95271071     0.06420
C906        C  0.63806971  0.96703244  0.92061468    -0.07300
Co907      Co  0.69244513  0.03376110  0.04289476     0.74180
N908        N  0.65911003  0.05596878  0.98720724    -0.26480
Co909      Co  0.69305704  0.03314808  0.96331497     0.74070
C910        C  0.62377322  0.99448315  0.90833942     0.42140
N911        N  0.65988855  0.93009463  0.98763239     0.00550
N912        N  0.66003373  0.00786637  0.93897117     0.00650
N913        N  0.73898171  0.08390996  0.03030780    -0.47320
H914        H  0.63001348  0.04263986  0.08698034     0.06410
N915        N  0.65897579  0.05655961  0.01756006     0.00940
N916        N  0.72708678  0.00887811  0.93986271     0.00680
C917        C  0.75284806  0.99713574  0.89916336     0.42280
N918        N  0.66009120  0.93036426  0.01796685    -0.25930
C919        C  0.73902217  0.01867946  0.09484417    -0.06850
N920        N  0.63664474  0.96689704  0.08214793    -0.47040
N921        N  0.74307073  0.02062100  0.91684876    -0.47260
C922        C  0.74924195  0.99047171  0.11014424     0.42050
N923        N  0.72551048  0.05902100  0.01889041     0.00920
N924        N  0.72685414  0.93068835  0.01838795    -0.25950
N925        N  0.65904686  0.00894091  0.06540829    -0.26450
N926        N  0.72608442  0.92891507  0.98807139     0.00560
H927        H  0.74637306  0.90199597  0.05332590     0.06450
H928        H  0.74135033  0.94600112  0.90516378     0.06490
N929        N  0.72475510  0.05929331  0.98846142    -0.26500
N930        N  0.66022671  0.97761749  0.93930550    -0.26110
N931        N  0.72610557  0.97922699  0.06754977     0.00930
C932        C  0.62131562  0.08474348  0.00427911     0.42330
C933        C  0.63743780  0.91209578  0.02809850    -0.07360
N934        N  0.72599375  0.97856882  0.93877164    -0.26110
H935        H  0.63352049  0.94316346  0.91532312     0.06470
N936        N  0.63674284  0.07381762  0.02883128    -0.47330
H937        H  0.63247739  0.90694824  0.05192654     0.06460
C938        C  0.75229553  0.88941937  0.00242047     0.42160
C939        C  0.63552111  0.01891437  0.08228726    -0.06860
Co940      Co  0.69338108  0.95459945  0.04260110     0.73820
N941        N  0.63817008  0.91213219  0.97595586    -0.47050
C942        C  0.74790272  0.10167321  0.00643698     0.42430
N943        N  0.74062576  0.96726472  0.09144275    -0.47040
Co944      Co  0.69328941  0.95354422  0.96324544     0.73890
C945        C  0.74197251  0.96911638  0.91426934    -0.07360
C946        C  0.63606244  0.07323690  0.97665033    -0.06930
N947        N  0.72470646  0.00947209  0.06896095    -0.26450
N948        N  0.63857839  0.01901371  0.92042267    -0.47220
H949        H  0.73725405  0.09353625  0.95531346     0.06430
C950        C  0.74463943  0.90820123  0.02927313    -0.07340
Cl951      Cl  0.69373614  0.99383047  0.00299685    -0.50340
C952        C  0.62299821  0.90028047  0.00018490     0.42190
H953        H  0.73752066  0.04152302  0.10448103     0.06400
N954        N  0.74033777  0.90417189  0.97776971    -0.47050
C955        C  0.00757409  0.87787589  0.59191507     0.42040
N956        N  0.99414211  0.83994364  0.56379975     0.00930
C957        C  0.09594392  0.75944344  0.47171142    -0.06950
H958        H  0.08983328  0.86807359  0.44638677     0.06420
C959        C  0.97701142  0.86067175  0.42027282    -0.07300
Co960      Co  0.04808103  0.80661899  0.53782544     0.74180
N961        N  0.06878315  0.84023923  0.48166809    -0.26480
Co962      Co  0.04485677  0.80638655  0.45847363     0.74070
C963        C  0.00408469  0.87603961  0.40790660     0.42140
N964        N  0.94264137  0.83764714  0.48775395     0.00550
N965        N  0.01856079  0.83885665  0.43618283     0.00650
N966        N  0.09512930  0.75794935  0.52337581    -0.47320
H967        H  0.05898055  0.86913230  0.58346176     0.06410
N968        N  0.07032399  0.84050751  0.51197747     0.00940
N969        N  0.01997166  0.77273409  0.43514669     0.00680
C970        C  0.00480349  0.74526391  0.39660734     0.42280
N971        N  0.94410914  0.83829356  0.51805768    -0.25930
C972        C  0.03658012  0.75626278  0.58608537    -0.06850
N973        N  0.98308563  0.86196878  0.58151464    -0.47040
N974        N  0.02963643  0.75820967  0.41026778    -0.47260
C975        C  0.01056177  0.74871984  0.60600370     0.42050
N976        N  0.07140205  0.77336724  0.51247098     0.00920
N977        N  0.94289893  0.77254169  0.51913256    -0.25950
N978        N  0.02439418  0.84019728  0.56230434    -0.26450
N979        N  0.94371159  0.77042502  0.48888441     0.00560
H980        H  0.90949821  0.75794207  0.55231094     0.06450
H981        H  0.95444110  0.74966310  0.41115436     0.06490
N982        N  0.07138065  0.77459653  0.48212472    -0.26500
N983        N  0.98833452  0.83790202  0.43760417    -0.26110
N984        N  0.99463655  0.77393527  0.56636640     0.00930
C985        C  0.09846700  0.87818807  0.49763391     0.42330
C986        C  0.92681504  0.86128708  0.52855016    -0.07360
N987        N  0.98989189  0.77106862  0.43813007    -0.26110
H988        H  0.95294854  0.86539106  0.41634309     0.06470
N989        N  0.08814525  0.86289961  0.52259697    -0.47330
H990        H  0.92295543  0.86693157  0.55247412     0.06460
C991        C  0.90331884  0.74415264  0.50137390     0.42160
C992        C  0.03504949  0.86355257  0.57946213    -0.06860
Co993      Co  0.96872378  0.80593671  0.54218028     0.73820
N994        N  0.92475640  0.85943088  0.47643177    -0.47050
C995        C  0.11226696  0.74883849  0.49923602     0.42430
N996        N  0.98538271  0.76003013  0.59179264    -0.47040
Co997      Co  0.96580268  0.80397723  0.46286391     0.73890
C998        C  0.97862485  0.75239274  0.41635780    -0.07360
C999        C  0.08591863  0.86321199  0.47047325    -0.06930
N1000       N  0.02479914  0.77347252  0.56350322    -0.26450
N1001       N  0.02900615  0.86121593  0.41845126    -0.47220
H1002       H  0.10415045  0.76043203  0.44826338     0.06430
C1003       C  0.91839537  0.75662564  0.52914944    -0.07340
Cl1004     Cl  0.00688272  0.80543616  0.50035710    -0.50340
C1005       C  0.91430487  0.87524838  0.50093567     0.42190
H1006       H  0.06080690  0.75488011  0.59150431     0.06400
N1007       N  0.92106455  0.75345295  0.47779702    -0.47050
C1008       C  0.88913988  0.99242266  0.40889781     0.42040
N1009       N  0.85182190  0.97832770  0.43724141     0.00930
C1010       C  0.76819681  0.07602978  0.53038186    -0.06950
H1011       H  0.88023068  0.07688167  0.55178716     0.06420
C1012       C  0.87745343  0.96414689  0.58046665    -0.07300
Co1013     Co  0.81722012  0.03159421  0.46295096     0.74180
N1014       N  0.85184188  0.05420137  0.51767969    -0.26480
Co1015     Co  0.81930875  0.02909935  0.54189033     0.74070
C1016       C  0.89175307  0.99194831  0.59238630     0.42140
N1017       N  0.85393453  0.92774211  0.51363159     0.00550
N1018       N  0.85374854  0.00452531  0.56405073     0.00650
N1019       N  0.76698101  0.07742776  0.47882290    -0.47320
H1020       H  0.87848026  0.04363929  0.41613849     0.06410
N1021       N  0.85106927  0.05531133  0.48736076     0.00940
N1022       N  0.78669910  0.00340035  0.56571110     0.00680
C1023       C  0.76337912  0.99061714  0.60757935     0.42280
N1024       N  0.85347293  0.92874996  0.48330833    -0.25930
C1025       C  0.76418466  0.01706122  0.41803473    -0.06850
N1026       N  0.87425477  0.96767055  0.41989963    -0.47040
N1027       N  0.77147794  0.01442452  0.58949183    -0.47260
C1028       C  0.75684233  0.99057946  0.39848568     0.42050
N1029       N  0.78427060  0.05459151  0.48877029     0.00920
N1030       N  0.78787232  0.92561152  0.48435201    -0.25950
N1031       N  0.85084900  0.00856995  0.43797526    -0.26450
N1032       N  0.78697957  0.92596501  0.51475337     0.00560
H1033       H  0.77400766  0.89190785  0.45096457     0.06450
H1034       H  0.77597934  0.93992811  0.60053723     0.06490
N1035       N  0.78569022  0.05370941  0.51897604    -0.26500
N1036       N  0.85416421  0.97428334  0.56311599    -0.26110
N1037       N  0.78571721  0.97646368  0.43641872     0.00930
C1038       C  0.88820938  0.08501341  0.50008427     0.42330
C1039       C  0.87610636  0.91122721  0.47231447    -0.07360
N1040       N  0.78854623  0.97319503  0.56630483    -0.26110
H1041       H  0.88291929  0.94037096  0.58494392     0.06470
N1042       N  0.87240809  0.07369357  0.47580130    -0.47330
H1043       H  0.88066667  0.90666955  0.44828544     0.06460
C1044       C  0.76295395  0.88426199  0.50206553     0.42160
C1045       C  0.87366922  0.01964819  0.42048873    -0.06860
Co1046     Co  0.81948576  0.95209584  0.45996415     0.73820
N1047       N  0.87605087  0.90999577  0.52444935    -0.47050
C1048       C  0.75531478  0.09228514  0.50358161     0.42430
N1049       N  0.77047561  0.96621716  0.41206255    -0.47040
Co1050     Co  0.82062542  0.94995798  0.53963064     0.73890
C1051       C  0.77422013  0.96304011  0.59165175    -0.07360
C1052       C  0.87461175  0.07238596  0.52791508    -0.06930
N1053       N  0.78391599  0.00654280  0.43912225    -0.26450
N1054       N  0.87586228  0.01612991  0.58157605    -0.47220
H1055       H  0.76887228  0.08219033  0.55436173     0.06430
C1056       C  0.77300682  0.90048595  0.47431171    -0.07340
Cl1057     Cl  0.81885379  0.99068825  0.50112695    -0.50340
C1058       C  0.89100600  0.89909107  0.49965719     0.42190
H1059       H  0.75986479  0.04108439  0.41377164     0.06400
N1060       N  0.77207735  0.90196848  0.52597042    -0.47050
C1061       C  0.12177651  0.90236801  0.49836706     0.42040
N1062       N  0.15855505  0.93175231  0.48418273     0.00930
C1063       C  0.24494802  0.02383448  0.58123256    -0.06950
H1064       H  0.13205355  0.04705761  0.58128391     0.06420
C1065       C  0.13539690  0.07570380  0.46919528    -0.07300
Co1066     Co  0.19267745  0.95690694  0.53790072     0.74180
N1067       N  0.15998671  0.01257606  0.55938228    -0.26480
Co1068     Co  0.19321889  0.03634081  0.53460403     0.74070
C1069       C  0.12118036  0.08776063  0.49686475     0.42140
N1070       N  0.15770312  0.00880703  0.43317140     0.00550
N1071       N  0.15902147  0.05937550  0.50991468     0.00650
N1072       N  0.24060954  0.97260584  0.58645818    -0.47320
H1073       H  0.13218703  0.91038026  0.54965069     0.06410
N1074       N  0.15977565  0.98233377  0.56051633     0.00940
N1075       N  0.22617369  0.05979051  0.50916122     0.00680
C1076       C  0.25345298  0.09980701  0.49719124     0.42280
N1077       N  0.15797795  0.97855622  0.43451043    -0.25930
C1078       C  0.23965911  0.90564004  0.52359286    -0.06850
N1079       N  0.13656565  0.91347787  0.47344217    -0.47040
N1080       N  0.24291287  0.08245816  0.52060085    -0.47260
C1081       C  0.24979145  0.88970524  0.49565576     0.42050
N1082       N  0.22591444  0.98226971  0.56158144     0.00920
N1083       N  0.22482392  0.97916320  0.43343953    -0.25950
N1084       N  0.15907112  0.93278123  0.51450578    -0.26450
N1085       N  0.22383739  0.00932655  0.43069716     0.00560
H1086       H  0.24390128  0.94366487  0.40535127     0.06450
H1087       H  0.24014039  0.09358329  0.44591259     0.06490
N1088       N  0.22671194  0.01245379  0.55910561    -0.26500
N1089       N  0.15852992  0.05839684  0.47958026    -0.26110
N1090       N  0.22560952  0.93123503  0.48340720     0.00930
C1091       C  0.12259265  0.99564645  0.58921309     0.42330
C1092       C  0.13473350  0.96761316  0.41733975    -0.07360
N1093       N  0.22460224  0.06056014  0.47887295    -0.26110
H1094       H  0.12984489  0.07994068  0.44527685     0.06470
N1095       N  0.13785125  0.97119131  0.57834234    -0.47330
H1096       H  0.12959318  0.94363062  0.41323786     0.06460
C1097       C  0.24924477  0.99398646  0.39100621     0.42160
C1098       C  0.13664908  0.91489238  0.52559428    -0.06860
Co1099     Co  0.19200789  0.95495468  0.45864639     0.73820
N1100       N  0.13538250  0.01956402  0.41547161    -0.47050
C1101       C  0.25283564  0.99753359  0.60059163     0.42430
N1102       N  0.24047428  0.90743194  0.47194727    -0.47040
Co1103     Co  0.19142767  0.03452612  0.45521935     0.73890
C1104       C  0.24104239  0.08485973  0.46916813    -0.07360
C1105       C  0.13717333  0.02317178  0.57698417    -0.06930
N1106       N  0.22473195  0.93074085  0.51378399    -0.26450
N1107       N  0.13705645  0.07698897  0.52131479    -0.47220
H1108       H  0.24705612  0.04797193  0.58675518     0.06430
C1109       C  0.24225473  0.96781238  0.41090910    -0.07340
Cl1110     Cl  0.19268691  0.99566956  0.49656900    -0.50340
C1111       C  0.11986423  0.99484199  0.40495533     0.42190
H1112       H  0.23874524  0.89684161  0.54684940     0.06400
N1113       N  0.23748973  0.01891333  0.40523442    -0.47050
C1114       C  0.91164410  0.10905252  0.49811706     0.42040
N1115       N  0.94035691  0.14696351  0.51082827     0.00930
C1116       C  0.02958176  0.22750336  0.40691412    -0.06950
H1117       H  0.05481309  0.11892067  0.41158150     0.06420
C1118       C  0.08457661  0.12575283  0.52545005    -0.07300
Co1119     Co  0.96487126  0.17997191  0.45632904     0.74180
N1120       N  0.02053207  0.14637821  0.43437385    -0.26480
Co1121     Co  0.04456051  0.18023682  0.45801164     0.74070
C1122       C  0.09693936  0.11086770  0.49819195     0.42140
N1123       N  0.01789806  0.14865486  0.56112345     0.00550
N1124       N  0.06763088  0.14754747  0.48403823     0.00650
N1125       N  0.97828837  0.22943484  0.40997501    -0.47320
H1126       H  0.91880152  0.11781935  0.44639829     0.06410
N1127       N  0.99024398  0.14628598  0.43351131     0.00940
N1128       N  0.06854872  0.21415613  0.48259898     0.00680
C1129       C  0.10794843  0.24189047  0.49598076     0.42280
N1130       N  0.98760452  0.14839650  0.56033608    -0.25930
C1131       C  0.91426081  0.22801934  0.46895023    -0.06850
N1132       N  0.92284822  0.12490452  0.52240977    -0.47040
N1133       N  0.09268178  0.22928164  0.47184018    -0.47260
C1134       C  0.89755391  0.23870196  0.49619887     0.42050
N1135       N  0.98989857  0.21347430  0.43299085     0.00920
N1136       N  0.98706742  0.21528557  0.55942673    -0.25950
N1137       N  0.94102546  0.14654382  0.48048588    -0.26450
N1138       N  0.01727664  0.21480306  0.56176867     0.00560
H1139       H  0.95171981  0.23451394  0.58753578     0.06450
H1140       H  0.09664547  0.23549387  0.54713380     0.06490
N1141       N  0.02013847  0.21211170  0.43190320    -0.26500
N1142       N  0.06683256  0.14832215  0.51437338    -0.26110
N1143       N  0.93872395  0.21414493  0.50988772     0.00930
C1144       C  0.00334742  0.10919766  0.40403462     0.42330
C1145       C  0.97752602  0.12544292  0.57832717    -0.07360
N1146       N  0.06713062  0.21524909  0.51293994    -0.26110
H1147       H  0.08919050  0.12122690  0.54951022     0.06470
N1148       N  0.97897517  0.12442114  0.41540982    -0.47330
H1149       H  0.95374082  0.11990518  0.58294396     0.06460
C1150       C  0.00222649  0.24072687  0.60126756     0.42160
C1151       C  0.92343053  0.12333551  0.47026539    -0.06860
Co1152     Co  0.96317194  0.18144624  0.53534338     0.73820
N1153       N  0.02950946  0.12702694  0.57906006    -0.47050
C1154       C  0.00152581  0.23862545  0.39173900     0.42430
N1155       N  0.91478748  0.22951592  0.52050781    -0.47040
Co1156     Co  0.04254834  0.18206131  0.53781789     0.73890
C1157       C  0.08977747  0.23363546  0.52323240    -0.07360
C1158       C  0.03095962  0.12371677  0.41637588    -0.06930
N1159       N  0.93873868  0.21265047  0.47959091    -0.26450
N1160       N  0.08563156  0.12560641  0.47335747    -0.47220
H1161       H  0.05262792  0.22650968  0.39780670     0.06430
C1162       C  0.97581460  0.23304113  0.58177223    -0.07340
Cl1163     Cl  0.00376147  0.18121887  0.49688653    -0.50340
C1164       C  0.00540062  0.11135602  0.59050068     0.42190
H1165       H  0.90601357  0.22690273  0.44544196     0.06400
N1166       N  0.02709225  0.22912182  0.58686940    -0.47050
C1167       C  0.00499749  0.90009593  0.38464149     0.42040
N1168       N  0.99071857  0.92828077  0.34720423     0.00930
C1169       C  0.08691918  0.01958582  0.25881437    -0.06950
H1170       H  0.08728773  0.04665626  0.37027111     0.06420
C1171       C  0.97391696  0.07250546  0.36627480    -0.07300
Co1172     Co  0.04396119  0.95402548  0.31237364     0.74180
N1173       N  0.06497486  0.01086823  0.34371081    -0.26480
Co1174     Co  0.03931786  0.03255982  0.30933443     0.74070
C1175       C  0.00157346  0.08561752  0.38000278     0.42140
N1176       N  0.93950019  0.00374429  0.34636786     0.00550
N1177       N  0.01443713  0.05616563  0.34279130     0.00650
N1178       N  0.09286621  0.96869722  0.26499831    -0.47320
H1179       H  0.05617286  0.90878907  0.37453344     0.06410
N1180       N  0.06631781  0.98066915  0.34498027     0.00940
N1181       N  0.01282955  0.05359413  0.27530445     0.00680
C1182       C  0.99944603  0.09411353  0.25010855     0.42280
N1183       N  0.94087647  0.97352262  0.34691689    -0.25930
C1184       C  0.03179184  0.90531346  0.26266775    -0.06850
N1185       N  0.98016672  0.91036753  0.36938027    -0.47040
N1186       N  0.02341534  0.07656004  0.25856085    -0.47260
C1187       C  0.00576692  0.88511086  0.25566703     0.42050
N1188       N  0.06761558  0.97843079  0.27872736     0.00920
N1189       N  0.93784406  0.97125149  0.28027161    -0.25950
N1190       N  0.02093959  0.92998018  0.34673031    -0.26450
N1191       N  0.93561619  0.00146993  0.27928650     0.00560
H1192       H  0.90798776  0.93502309  0.26485416     0.06450
H1193       H  0.94896898  0.08712745  0.26393000     0.06490
N1194       N  0.06460217  0.00843825  0.27679776    -0.26500
N1195       N  0.98421244  0.05451901  0.34351561    -0.26110
N1196       N  0.99000447  0.92463458  0.28102197     0.00930
C1197       C  0.09575912  0.99568729  0.38145484     0.42330
C1198       C  0.92468677  0.96326429  0.37098208    -0.07360
N1199       N  0.98261170  0.05393274  0.27755823    -0.26110
H1200       H  0.95009447  0.07639621  0.37196453     0.06470
N1201       N  0.08466222  0.97058571  0.36705863    -0.47330
H1202       H  0.92097684  0.93944778  0.37701454     0.06460
C1203       C  0.89564703  0.98487570  0.25393216     0.42160
C1204       C  0.03213127  0.91281782  0.36973237    -0.06860
Co1205     Co  0.96456781  0.94912209  0.31352833     0.73820
N1206       N  0.92286346  0.01516843  0.36905585    -0.47050
C1207       C  0.10681641  0.99336627  0.25221947     0.42430
N1208       N  0.98066597  0.89898948  0.26742814    -0.47040
Co1209     Co  0.96005916  0.02862299  0.31138348     0.73890
C1210       C  0.97210345  0.07841397  0.26214090    -0.07360
C1211       C  0.08298725  0.02253652  0.36603949    -0.06930
N1212       N  0.02017194  0.92779928  0.27996253    -0.26450
N1213       N  0.02583738  0.07470454  0.36424144    -0.47220
H1214       H  0.09204585  0.04374311  0.25605028     0.06430
C1215       C  0.91445969  0.95902283  0.26419329    -0.07340
Cl1216     Cl  0.00191730  0.99106133  0.31104116    -0.50340
C1217       C  0.91299864  0.99092810  0.38554385     0.42190
H1218       H  0.05601560  0.90025544  0.26085681     0.06400
N1219       N  0.91054255  0.01034121  0.26430605    -0.47050
C1220       C  0.00621226  0.90168611  0.61550125     0.42040
N1221       N  0.02043624  0.93089319  0.65231473     0.00930
C1222       C  0.92056682  0.02315250  0.73441355    -0.06950
H1223       H  0.92367552  0.04553913  0.62406037     0.06420
C1224       C  0.03554870  0.07525933  0.62829134    -0.07300
Co1225     Co  0.96772297  0.95688202  0.68744781     0.74180
N1226       N  0.94557866  0.01168164  0.65289620    -0.26480
Co1227     Co  0.97037526  0.03597128  0.68544502     0.74070
C1228       C  0.00770856  0.08748691  0.61413326     0.42140
N1229       N  0.07128270  0.00741388  0.65077085     0.00550
N1230       N  0.99516809  0.05814948  0.65147746     0.00650
N1231       N  0.92285920  0.97184509  0.73779231    -0.47320
H1232       H  0.95497467  0.90913653  0.62618884     0.06410
N1233       N  0.94433922  0.98145642  0.65368972     0.00940
N1234       N  0.99647864  0.05988700  0.71780877     0.00680
C1235       C  0.01172798  0.09922486  0.74393237     0.42280
N1236       N  0.07019554  0.97715685  0.65108520    -0.25930
C1237       C  0.98082976  0.91059008  0.73913918    -0.06850
N1238       N  0.03102864  0.91301700  0.63020128    -0.47040
N1239       N  0.98679555  0.08463904  0.73237684    -0.47260
C1240       C  0.00679151  0.89026854  0.74552829     0.42050
N1241       N  0.94568323  0.98275099  0.72105078     0.00920
N1242       N  0.07219950  0.97704381  0.71785782    -0.25950
N1243       N  0.99019767  0.93169096  0.65334212    -0.26450
N1244       N  0.07493472  0.00722248  0.71694681     0.00560
H1245       H  0.10054973  0.94141833  0.73633718     0.06450
H1246       H  0.06227675  0.08601382  0.73759117     0.06490
N1247       N  0.94499894  0.01291373  0.71881911    -0.26500
N1248       N  0.02543861  0.05732006  0.65128919    -0.26110
N1249       N  0.02193833  0.92907041  0.71842823     0.00930
C1250       C  0.91545473  0.99395529  0.61601815     0.42330
C1251       C  0.08724350  0.96652393  0.62782452    -0.07360
N1252       N  0.02671753  0.05763394  0.71826798    -0.26110
H1253       H  0.05934411  0.07992244  0.62287006     0.06470
N1254       N  0.92632402  0.96980784  0.63197961    -0.47330
H1255       H  0.09151363  0.94262938  0.62268075     0.06460
C1256       C  0.11503561  0.99176569  0.74187980     0.42160
C1257       C  0.97900626  0.91374188  0.63076812    -0.06860
Co1258     Co  0.04643713  0.95330330  0.68515946     0.73820
N1259       N  0.08861507  0.01852260  0.62843770    -0.47050
C1260       C  0.90526678  0.99565460  0.74657135     0.42430
N1261       N  0.03152889  0.90386171  0.73240593    -0.47040
Co1262     Co  0.04993156  0.03269123  0.68461744     0.73890
C1263       C  0.03815629  0.08011560  0.73599469    -0.07360
C1264       C  0.92787921  0.02177598  0.62982030    -0.06930
N1265       N  0.99196706  0.93227764  0.72044314    -0.26450
N1266       N  0.98361093  0.07611734  0.62981672    -0.47220
H1267       H  0.91175746  0.04626915  0.73291640     0.06430
C1268       C  0.09507498  0.96556459  0.73486338    -0.07340
Cl1269     Cl  0.00864286  0.99470508  0.68597249    -0.50340
C1270       C  0.09914774  0.99402804  0.61293877     0.42190
H1271       H  0.95665858  0.90642843  0.74295823     0.06400
N1272       N  0.10065488  0.01675886  0.73037408    -0.47050
C1273       C  0.00030756  0.25073488  0.23478879     0.00150
C1274       C  0.00053342  0.22824479  0.25753853     0.00150
C1275       C  0.74319518  0.99039062  0.24347569     0.00150
C1276       C  0.76344915  0.98070784  0.26642735     0.00150
C1277       C  0.00581670  0.72841525  0.24001317     0.00150
C1278       C  0.00569685  0.75108605  0.26253451     0.00150
C1279       C  0.26366109  0.98896940  0.23407473     0.00150
C1280       C  0.24111736  0.99066721  0.25663914     0.00150
C1281       C  0.26359758  0.25370325  0.50629704     0.00150
C1282       C  0.24182836  0.23132962  0.49767018     0.00150
C1283       C  0.74206945  0.24536176  0.49941155     0.00150
C1284       C  0.76357647  0.22241812  0.49356352     0.00150
C1285       C  0.26855352  0.73207207  0.49538224     0.00150
C1286       C  0.24633752  0.75512623  0.49525168     0.00150
C1287       C  0.27240474  0.99213511  0.75775459     0.00150
C1288       C  0.24947813  0.99293984  0.73514903     0.00150
C1289       C  0.24047150  0.24995772  0.98530428     0.00150
C1290       C  0.26107055  0.22544948  0.98632838     0.00150
C1291       C  0.24798284  0.72713665  0.99910213     0.00150
C1292       C  0.27068314  0.74961960  0.99769951     0.00150
C1293       C  0.51672353  0.72532333  0.26144728     0.00150
C1294       C  0.51519671  0.74676883  0.23731997     0.00150
C1295       C  0.50601951  0.24823367  0.26156121     0.00150
C1296       C  0.49770739  0.22621576  0.23946553     0.00150
C1297       C  0.50356481  0.25492587  0.73941109     0.00150
C1298       C  0.50458924  0.23199088  0.76165971     0.00150
C1299       C  0.00502895  0.23278792  0.73547922     0.00150
C1300       C  0.00443665  0.25516353  0.75824523     0.00150
C1301       C  0.76331875  0.25767758  0.00701208     0.00150
C1302       C  0.74225335  0.23492365  0.99824406     0.00150
C1303       C  0.26316808  0.50148839  0.25596173     0.00150
C1304       C  0.24111867  0.50303144  0.23230086     0.00150
C1305       C  0.76594291  0.48778869  0.23630511     0.00150
C1306       C  0.74342939  0.48722899  0.25888994     0.00150
C1307       C  0.26603892  0.48759447  0.73831468     0.00150
C1308       C  0.24310812  0.49685959  0.75892787     0.00150
C1309       C  0.01168139  0.73376208  0.76320948     0.00150
C1310       C  0.01076242  0.75620610  0.74048651     0.00150
C1311       C  0.74864107  0.99542041  0.76475814     0.00150
C1312       C  0.77124498  0.99443280  0.74217187     0.00150
C1313       C  0.77012304  0.73241873  0.99795466     0.00150
C1314       C  0.74774572  0.75520259  0.99815840     0.00150
C1315       C  0.74745091  0.49952782  0.73778031     0.00150
C1316       C  0.77149249  0.50175437  0.75930978     0.00150
C1317       C  0.76928610  0.74980323  0.50031953     0.00150
C1318       C  0.74651933  0.72710483  0.49952209     0.00150
C1319       C  0.51567400  0.73162342  0.73452973     0.00150
C1320       C  0.50529922  0.75397978  0.75523226     0.00150
C1321       C  0.85470503  0.96990212  0.73327473    -0.02270
C1322       C  0.87125093  0.99266651  0.74984501     0.07420
C1323       C  0.85479922  0.01413940  0.76755932    -0.02380
C1324       C  0.82229735  0.01501205  0.76641305    -0.02380
C1325       C  0.80552420  0.99245085  0.74927629     0.07550
C1326       C  0.82252862  0.96878911  0.73469889    -0.02580
Br1327     Br  0.80256144  0.93269371  0.71795844    -0.01130
Br1328     Br  0.87453236  0.94118630  0.70549987    -0.01200
Br1329     Br  0.80279048  0.04995145  0.78532190    -0.01160
Br1330     Br  0.87709168  0.04301309  0.79320213    -0.01140
C1331       C  0.98771369  0.18122676  0.76105048    -0.02270
C1332       C  0.00834551  0.19864478  0.74229217     0.07420
C1333       C  0.03144979  0.18233269  0.72615414    -0.02380
C1334       C  0.03117099  0.15026552  0.72487615    -0.02380
C1335       C  0.01233684  0.13329222  0.74510895     0.07550
C1336       C  0.99119949  0.14904722  0.76372020    -0.02580
Br1337     Br  0.96556670  0.12586048  0.79165259    -0.01130
Br1338     Br  0.95199550  0.19880465  0.78035823    -0.01200
Br1339     Br  0.05317916  0.13128951  0.69115282    -0.01160
Br1340     Br  0.06599915  0.20276016  0.70727617    -0.01140
C1341       C  0.16542995  0.97053116  0.72322586    -0.02270
C1342       C  0.14919867  0.99017474  0.74315896     0.07420
C1343       C  0.16590360  0.01006983  0.76255255    -0.02380
C1344       C  0.19838054  0.01175513  0.76079306    -0.02380
C1345       C  0.21505627  0.99045598  0.74217214     0.07550
C1346       C  0.19749007  0.96845768  0.72529681    -0.02580
Br1347     Br  0.21594661  0.93337523  0.70576826    -0.01130
Br1348     Br  0.14545339  0.94961361  0.68907917    -0.01200
Br1349     Br  0.21724230  0.04675626  0.78042181    -0.01160
Br1350     Br  0.14365655  0.03647481  0.79036612    -0.01140
C1351       C  0.98308980  0.80641395  0.73345901    -0.02270
C1352       C  0.00779284  0.79039133  0.74747545     0.07420
C1353       C  0.03010627  0.80798274  0.76410835    -0.02380
C1354       C  0.02823151  0.84044416  0.76490529    -0.02380
C1355       C  0.00503026  0.85609281  0.74853520     0.07550
C1356       C  0.98248305  0.83862998  0.73252428    -0.02580
Br1357     Br  0.95210526  0.85701340  0.70550520    -0.01130
Br1358     Br  0.94773399  0.78471058  0.71716683    -0.01200
Br1359     Br  0.05867975  0.86398921  0.78748229    -0.01160
Br1360     Br  0.06546130  0.78953884  0.78357672    -0.01140
C1361       C  0.15670468  0.97308219  0.23167817    -0.02270
C1362       C  0.14096852  0.99486246  0.24964108     0.07420
C1363       C  0.15826324  0.01600833  0.26738437    -0.02380
C1364       C  0.19033407  0.01707710  0.26483975    -0.02380
C1365       C  0.20676081  0.99336166  0.24968244     0.07550
C1366       C  0.18920887  0.97118555  0.23273264    -0.02580
Br1367     Br  0.20744039  0.93548719  0.21401341    -0.01130
Br1368     Br  0.13319400  0.94445162  0.20688750    -0.01200
Br1369     Br  0.21076737  0.05314062  0.28096047    -0.01160
Br1370     Br  0.13993319  0.04064327  0.29961037    -0.01140
C1371       C  0.02779234  0.83496425  0.27407737    -0.02270
C1372       C  0.00776309  0.85105830  0.25427987     0.07420
C1373       C  0.98776974  0.83429190  0.23500616    -0.02380
C1374       C  0.98625018  0.80185753  0.23686423    -0.02380
C1375       C  0.00775244  0.78541942  0.25553703     0.07550
C1376       C  0.02997029  0.80297269  0.27208986    -0.02580
Br1377     Br  0.06553600  0.78442559  0.29099322    -0.01130
Br1378     Br  0.04916792  0.85490663  0.30794586    -0.01200
Br1379     Br  0.95157141  0.78249501  0.21690661    -0.01160
Br1380     Br  0.96114933  0.85634838  0.20711602    -0.01140
C1381       C  0.84425721  0.96932218  0.23073608    -0.02270
C1382       C  0.86153272  0.98227645  0.25520499     0.07420
C1383       C  0.84725389  0.98485139  0.28404618    -0.02380
C1384       C  0.81743967  0.97403100  0.28798269    -0.02380
C1385       C  0.79744692  0.97090885  0.26240079     0.07550
C1386       C  0.81236493  0.96276713  0.23453126    -0.02580
Br1387     Br  0.79485474  0.93104401  0.20902667    -0.01130
Br1388     Br  0.86439671  0.96004935  0.19249968    -0.01200
Br1389     Br  0.81155614  0.94904385  0.32417702    -0.01160
Br1390     Br  0.86801291  0.00040957  0.31990880    -0.01140
C1391       C  0.98081764  0.14510860  0.23067566    -0.02270
C1392       C  0.00225116  0.12822221  0.24807220     0.07420
C1393       C  0.02472911  0.14430897  0.26552550    -0.02380
C1394       C  0.02547144  0.17653185  0.26542526    -0.02380
C1395       C  0.00211182  0.19390937  0.25064494     0.07550
C1396       C  0.97985859  0.17753498  0.23263852    -0.02580
Br1397     Br  0.94521530  0.19731509  0.21327695    -0.01130
Br1398     Br  0.95219945  0.12343180  0.20417521    -0.01200
Br1399     Br  0.06101011  0.19598303  0.28390666    -0.01160
Br1400     Br  0.05393120  0.12359469  0.29232704    -0.01140
C1401       C  0.02331964  0.25896950  0.68453080    -0.02270
C1402       C  0.00242005  0.23983481  0.70120632     0.07420
C1403       C  0.98013969  0.22310692  0.68398197    -0.02380
C1404       C  0.98161267  0.22151107  0.65186577    -0.02380
C1405       C  0.00100931  0.24174283  0.63547116     0.07550
C1406       C  0.02125071  0.26096742  0.65203583    -0.02580
Br1407     Br  0.04753953  0.28889040  0.62961986    -0.01130
Br1408     Br  0.05764842  0.27972234  0.70379932    -0.01200
Br1409     Br  0.96024208  0.18752911  0.63219312    -0.01160
Br1410     Br  0.94525582  0.20361191  0.70325144    -0.01140
C1411       C  0.81886059  0.20398611  0.50151394    -0.02270
C1412       C  0.79862044  0.22638629  0.48897807     0.07420
C1413       C  0.81326067  0.25138214  0.47378833    -0.02380
C1414       C  0.84532283  0.25689189  0.47800399    -0.02380
C1415       C  0.86320224  0.23749041  0.49700510     0.07550
C1416       C  0.84867053  0.21185054  0.51044662    -0.02580
Br1417     Br  0.86952679  0.18327387  0.53744358    -0.01130
Br1418     Br  0.81641632  0.16137769  0.48903589    -0.01200
Br1419     Br  0.86494278  0.29120037  0.45797826    -0.01160
Br1420     Br  0.79317305  0.27157053  0.43997956    -0.01140
C1421       C  0.19214141  0.25929264  0.47587707    -0.02270
C1422       C  0.20705931  0.23460030  0.49114715     0.07420
C1423       C  0.18728138  0.20972659  0.49836304    -0.02380
C1424       C  0.15728161  0.21522847  0.50726196    -0.02380
C1425       C  0.14215695  0.24138461  0.49584710     0.07550
C1426       C  0.15955806  0.26245632  0.47809418    -0.02580
Br1427     Br  0.13874257  0.29528512  0.45710543    -0.01130
Br1428     Br  0.21391906  0.28445021  0.44709779    -0.01200
Br1429     Br  0.13761302  0.18281505  0.53022244    -0.01160
Br1430     Br  0.19100981  0.17105917  0.47676890    -0.01140
C1431       C  0.02144333  0.25386042  0.30779694    -0.02270
C1432       C  0.99898318  0.23576995  0.29184873     0.07420
C1433       C  0.97485608  0.22248849  0.30948961    -0.02380
C1434       C  0.97415306  0.22522135  0.34175145    -0.02380
C1435       C  0.99795119  0.24116075  0.35756208     0.07550
C1436       C  0.02036420  0.25686029  0.34021638    -0.02580
Br1437     Br  0.04953567  0.28338761  0.36113458    -0.01130
Br1438     Br  0.05644078  0.27209616  0.28745004    -0.01200
Br1439     Br  0.93978042  0.20604388  0.36300158    -0.01160
Br1440     Br  0.94036518  0.20201738  0.29002257    -0.01140
C1441       C  0.27456046  0.97773953  0.65029723    -0.02270
C1442       C  0.25555862  0.99870359  0.63475733     0.07420
C1443       C  0.23688707  0.01851199  0.65222483    -0.02380
C1444       C  0.23987076  0.01956899  0.68433395    -0.02380
C1445       C  0.25607452  0.99641802  0.70069644     0.07550
C1446       C  0.27346343  0.97509842  0.68279715    -0.02580
Br1447     Br  0.29199658  0.93889473  0.69993962    -0.01130
Br1448     Br  0.30065764  0.95102272  0.62640749    -0.01200
Br1449     Br  0.22245546  0.05477607  0.70457812    -0.01160
Br1450     Br  0.20290707  0.04088667  0.63408332    -0.01140
C1451       C  0.27009185  0.15111846  0.47547584    -0.02270
C1452       C  0.25976844  0.13360574  0.50086116     0.07420
C1453       C  0.25048976  0.14954096  0.52790191    -0.02380
C1454       C  0.24532227  0.18141438  0.52691176    -0.02380
C1455       C  0.25217246  0.19840702  0.49997772     0.07550
C1456       C  0.26530871  0.18313111  0.47457000    -0.02580
Br1457     Br  0.27169957  0.20473282  0.43649180    -0.01130
Br1458     Br  0.29200246  0.13175034  0.44222613    -0.01200
Br1459     Br  0.22445393  0.20093764  0.56127197    -0.01160
Br1460     Br  0.24445357  0.12914477  0.56704475    -0.01140
C1461       C  0.27283141  0.83932533  0.51245444    -0.02270
C1462       C  0.25275531  0.85558190  0.49292863     0.07420
C1463       C  0.23409601  0.83880078  0.47212946    -0.02380
C1464       C  0.23655328  0.80669912  0.47019186    -0.02380
C1465       C  0.25336863  0.78961721  0.49248848     0.07550
C1466       C  0.27207900  0.80675884  0.51361485    -0.02580
Br1467     Br  0.29377148  0.78798065  0.54740524    -0.01130
Br1468     Br  0.30112960  0.86209332  0.53830754    -0.01200
Br1469     Br  0.21787674  0.78719544  0.43482299    -0.01160
Br1470     Br  0.20188758  0.85829296  0.44821793    -0.01140
C1471       C  0.23123132  0.96862067  0.30924002    -0.02270
C1472       C  0.24811771  0.98985362  0.29106115     0.07420
C1473       C  0.26711947  0.01168158  0.30688674    -0.02380
C1474       C  0.26903023  0.01132870  0.33948235    -0.02380
C1475       C  0.24975790  0.99195608  0.35681398     0.07550
C1476       C  0.22937192  0.97199846  0.34117661    -0.02580
Br1477     Br  0.19485257  0.95250801  0.36154745    -0.01130
Br1478     Br  0.21199054  0.93252767  0.29180515    -0.01200
Br1479     Br  0.29689373  0.03871569  0.36087107    -0.01160
Br1480     Br  0.28792942  0.04488596  0.28610610    -0.01140
C1481       C  0.74292854  0.14022607  0.47305273    -0.02270
C1482       C  0.74646923  0.12556286  0.50209949     0.07420
C1483       C  0.74711406  0.14431153  0.52886384    -0.02380
C1484       C  0.75267367  0.17606403  0.52624582    -0.02380
C1485       C  0.75334428  0.18998789  0.49694990     0.07550
C1486       C  0.74659696  0.17232654  0.47054794    -0.02580
Br1487     Br  0.74447136  0.19212917  0.43088717    -0.01130
Br1488     Br  0.73209597  0.11721035  0.43650592    -0.01200
Br1489     Br  0.75975025  0.20031982  0.56278038    -0.01160
Br1490     Br  0.73452708  0.12894264  0.56851089    -0.01140
C1491       C  0.76702646  0.01468294  0.34612144    -0.02270
C1492       C  0.75292470  0.99141398  0.36435384     0.07420
C1493       C  0.73871196  0.96616578  0.34928822    -0.02380
C1494       C  0.74109888  0.96276551  0.31704745    -0.02380
C1495       C  0.75477334  0.98621682  0.29925904     0.07550
C1496       C  0.76529670  0.01315693  0.31391115    -0.02580
Br1497     Br  0.77870764  0.04777721  0.28980437    -0.01130
Br1498     Br  0.79453674  0.04573377  0.36266856    -0.01200
Br1499     Br  0.72804821  0.92513642  0.29746205    -0.01160
Br1500     Br  0.71766457  0.93501975  0.37283737    -0.01140
C1501       C  0.74374314  0.97344870  0.65921245    -0.02270
C1502       C  0.76212348  0.99358877  0.64176335     0.07420
C1503       C  0.78093758  0.01521498  0.65731366    -0.02380
C1504       C  0.78005882  0.01751037  0.68951615    -0.02380
C1505       C  0.76426229  0.99533702  0.70765145     0.07550
C1506       C  0.74579658  0.97310166  0.69176752    -0.02580
Br1507     Br  0.72595588  0.93918261  0.71234540    -0.01130
Br1508     Br  0.71600835  0.94561519  0.63813651    -0.01200
Br1509     Br  0.79916101  0.05338660  0.70766239    -0.01160
Br1510     Br  0.81115575  0.04021165  0.63592295    -0.01140
C1511       C  0.77905438  0.83363711  0.52544739    -0.02270
C1512       C  0.76080047  0.85009697  0.50419704     0.07420
C1513       C  0.74241998  0.83354731  0.48312365    -0.02380
C1514       C  0.74445733  0.80116159  0.48102587    -0.02380
C1515       C  0.76259551  0.78425992  0.50267617     0.07550
C1516       C  0.77794908  0.80141077  0.52611889    -0.02580
Br1517     Br  0.79569693  0.78191773  0.56181847    -0.01130
Br1518     Br  0.80861583  0.85390442  0.55235591    -0.01200
Br1519     Br  0.72504528  0.78265659  0.44553186    -0.01160
Br1520     Br  0.71447775  0.85566554  0.45652286    -0.01140
C1521       C  0.16343408  0.76497719  0.52185248    -0.02270
C1522       C  0.14639078  0.74655193  0.50100274     0.07420
C1523       C  0.16231043  0.72808353  0.47978390    -0.02380
C1524       C  0.19466016  0.73007825  0.47723982    -0.02380
C1525       C  0.21204144  0.74842121  0.49838474     0.07550
C1526       C  0.19565418  0.76411491  0.52185403    -0.02580
Br1527     Br  0.21652841  0.78307981  0.55637042    -0.01130
Br1528     Br  0.14400393  0.79446231  0.54902542    -0.01200
Br1529     Br  0.21276700  0.71045419  0.44190994    -0.01160
Br1530     Br  0.13941610  0.70017563  0.45357124    -0.01140
C1531       C  0.02356106  0.72468029  0.34615567    -0.02270
C1532       C  0.00292632  0.74333286  0.36250112     0.07420
C1533       C  0.98267834  0.76245395  0.34590898    -0.02380
C1534       C  0.98083999  0.76025247  0.31384965    -0.02380
C1535       C  0.00346095  0.74422816  0.29680817     0.07550
C1536       C  0.02513437  0.72622446  0.31363286    -0.02580
Br1537     Br  0.05983986  0.70671178  0.29440256    -0.01130
Br1538     Br  0.05117219  0.69839993  0.36886305    -0.01200
Br1539     Br  0.94517182  0.77803560  0.29440685    -0.01160
Br1540     Br  0.96066757  0.79597465  0.36511892    -0.01140
C1541       C  0.03438587  0.76590996  0.68849394    -0.02270
C1542       C  0.01239744  0.74929798  0.70604125     0.07420
C1543       C  0.99100388  0.73033333  0.68949825    -0.02380
C1544       C  0.99229943  0.72853020  0.65693155    -0.02380
C1545       C  0.01230370  0.74768736  0.64019862     0.07550
C1546       C  0.03208194  0.76776791  0.65643212    -0.02580
Br1547     Br  0.05289298  0.80188048  0.63662000    -0.01130
Br1548     Br  0.07044870  0.78425745  0.70689896    -0.01200
Br1549     Br  0.96532288  0.70091078  0.63464448    -0.01160
Br1550     Br  0.95740962  0.70889043  0.70901628    -0.01140
C1551       C  0.85238859  0.72426130  0.52079026    -0.02270
C1552       C  0.86929289  0.73975601  0.49785897     0.07420
C1553       C  0.85303191  0.75353579  0.47314316    -0.02380
C1554       C  0.82082868  0.75581778  0.47411644    -0.02380
C1555       C  0.80354031  0.74261957  0.49852755     0.07550
C1556       C  0.81986625  0.72540488  0.52121414    -0.02580
Br1557     Br  0.79958347  0.70573732  0.55542517    -0.01130
Br1558     Br  0.87402751  0.70041133  0.55145366    -0.01200
Br1559     Br  0.80088748  0.77561628  0.43967415    -0.01160
Br1560     Br  0.87349848  0.76964877  0.43677799    -0.01140
C1561       C  0.76917928  0.15161417  0.98680923    -0.02270
C1562       C  0.75020329  0.13592790  0.00795166     0.07420
C1563       C  0.73126405  0.15333633  0.02791672    -0.02380
C1564       C  0.73119287  0.18566722  0.02622170    -0.02380
C1565       C  0.74841474  0.20127051  0.00348595     0.07550
C1566       C  0.76760132  0.18384962  0.98381428    -0.02580
Br1567     Br  0.79022042  0.20313618  0.95102900    -0.01130
Br1568     Br  0.79761776  0.12884525  0.96161702    -0.01200
Br1569     Br  0.70765681  0.20885181  0.05578746    -0.01160
Br1570     Br  0.70295622  0.13399481  0.05623841    -0.01140
C1571       C  0.73484513  0.83797834  0.02236035    -0.02270
C1572       C  0.75427045  0.85527406  0.00301254     0.07420
C1573       C  0.77395453  0.83961978  0.98274796    -0.02380
C1574       C  0.77312480  0.80709426  0.98063202    -0.02380
C1575       C  0.75460106  0.78954139  0.00139126     0.07550
C1576       C  0.73771574  0.80605110  0.02386502    -0.02580
Br1577     Br  0.72004747  0.78628782  0.05932526    -0.01130
Br1578     Br  0.70022658  0.85609233  0.04356838    -0.01200
Br1579     Br  0.79482989  0.78886678  0.94664206    -0.01160
Br1580     Br  0.80089271  0.86328541  0.95655827    -0.01140
C1581       C  0.77381643  0.97750630  0.81651502    -0.02270
C1582       C  0.75542534  0.99849325  0.79921327     0.07420
C1583       C  0.73921564  0.02129999  0.81599811    -0.02380
C1584       C  0.73718305  0.02014550  0.84820040    -0.02380
C1585       C  0.75592942  0.99979257  0.86511323     0.07550
C1586       C  0.77539397  0.97971883  0.84900913    -0.02580
Br1587     Br  0.80371026  0.95431047  0.87190829    -0.01130
Br1588     Br  0.79343758  0.94233440  0.79833678    -0.01200
Br1589     Br  0.70527803  0.04432792  0.86758091    -0.01160
Br1590     Br  0.72075568  0.05622202  0.79598662    -0.01140
C1591       C  0.77098301  0.00575434  0.19372624    -0.02270
C1592       C  0.75020156  0.98636016  0.20975946     0.07420
C1593       C  0.73161888  0.96577460  0.19261142    -0.02380
C1594       C  0.73131760  0.96666444  0.16022652    -0.02380
C1595       C  0.75138942  0.98683022  0.14422350     0.07550
C1596       C  0.77194626  0.00539386  0.16122389    -0.02580
Br1597     Br  0.80103277  0.03117732  0.13975773    -0.01130
Br1598     Br  0.79611474  0.03525803  0.21523963    -0.01200
Br1599     Br  0.70068320  0.94201620  0.13906202    -0.01160
Br1600     Br  0.70661126  0.93566904  0.21379365    -0.01140
C1601       C  0.24322833  0.83349266  0.01185184    -0.02270
C1602       C  0.26122579  0.84923817  0.99003832     0.07420
C1603       C  0.28054007  0.83215932  0.97046825    -0.02380
C1604       C  0.27906664  0.80005412  0.97046476    -0.02380
C1605       C  0.26382104  0.78379565  0.99436368     0.07550
C1606       C  0.24588809  0.80133091  0.01551565    -0.02580
Br1607     Br  0.22763711  0.78410803  0.05209675    -0.01130
Br1608     Br  0.21605060  0.85667375  0.03813170    -0.01200
Br1609     Br  0.29628247  0.77945516  0.93521364    -0.01160
Br1610     Br  0.31338339  0.85096184  0.94693910    -0.01140
C1611       C  0.24803938  0.13888294  0.96921771    -0.02270
C1612       C  0.25037403  0.12590605  0.99878233     0.07420
C1613       C  0.24763487  0.14638581  0.02410496    -0.02380
C1614       C  0.24414869  0.17837437  0.01887642    -0.02380
C1615       C  0.25151762  0.19151380  0.98973305     0.07550
C1616       C  0.25451729  0.17018363  0.96492210    -0.02580
Br1617     Br  0.27076137  0.17970935  0.92504537    -0.01130
Br1618     Br  0.23465948  0.11453091  0.93416886    -0.01200
Br1619     Br  0.22621409  0.20172003  0.05164987    -0.01160
Br1620     Br  0.24836054  0.13282019  0.06635469    -0.01140
C1621       C  0.26703308  0.02220086  0.84071947    -0.02270
C1622       C  0.25650508  0.99660492  0.85764297     0.07420
C1623       C  0.24624622  0.97068928  0.84074458    -0.02380
C1624       C  0.24842793  0.96994781  0.80809942    -0.02380
C1625       C  0.26523786  0.99325352  0.79216580     0.07550
C1626       C  0.27574930  0.01873820  0.80984555    -0.02580
Br1627     Br  0.29971474  0.05178846  0.79269595    -0.01130
Br1628     Br  0.26305250  0.06384966  0.85557278    -0.01200
Br1629     Br  0.22989512  0.93542783  0.78701069    -0.01160
Br1630     Br  0.22778450  0.93649004  0.86228964    -0.01140
C1631       C  0.27452057  0.96200270  0.15168574    -0.02270
C1632       C  0.25572544  0.98179960  0.13417964     0.07420
C1633       C  0.23693442  0.00298102  0.14966474    -0.02380
C1634       C  0.23858440  0.00606899  0.18209102    -0.02380
C1635       C  0.25648981  0.98509475  0.19988912     0.07550
C1636       C  0.27212960  0.96149270  0.18379811    -0.02580
Br1637     Br  0.28927670  0.92641414  0.20469505    -0.01130
Br1638     Br  0.30800990  0.93898826  0.13371630    -0.01200
Br1639     Br  0.21959835  0.04198491  0.19956325    -0.01160
Br1640     Br  0.21032576  0.02934053  0.12582844    -0.01140
C1641       C  0.53140429  0.14590232  0.23513553    -0.02270
C1642       C  0.50902587  0.12756770  0.25043283     0.07420
C1643       C  0.48481617  0.14257134  0.26591737    -0.02380
C1644       C  0.48100483  0.17471855  0.26334383    -0.02380
C1645       C  0.50341015  0.19291997  0.24827088     0.07550
C1646       C  0.52968552  0.17817308  0.23618598    -0.02580
Br1647     Br  0.56205106  0.20218973  0.21720604    -0.01130
Br1648     Br  0.56132969  0.12883910  0.20710773    -0.01200
Br1649     Br  0.44238460  0.19222371  0.27532229    -0.01160
Br1650     Br  0.45526770  0.11873588  0.28893177    -0.01140
C1651       C  0.53014634  0.80091533  0.26022526    -0.02270
C1652       C  0.50952874  0.78124636  0.24338987     0.07420
C1653       C  0.48447916  0.79584564  0.22812873    -0.02380
C1654       C  0.48266814  0.82810466  0.22611103    -0.02380
C1655       C  0.50214368  0.84693216  0.24425351     0.07550
C1656       C  0.52471895  0.83284435  0.26247609    -0.02580
Br1657     Br  0.54951426  0.85819617  0.28969461    -0.01130
Br1658     Br  0.56914991  0.78800394  0.27630763    -0.01200
Br1659     Br  0.45625777  0.84520375  0.19453181    -0.01160
Br1660     Br  0.45121609  0.77283558  0.20964650    -0.01140
C1661       C  0.31585369  0.01234352  0.22371807    -0.02270
C1662       C  0.29814026  0.99088272  0.24088902     0.07420
C1663       C  0.31445200  0.96995297  0.26025911    -0.02380
C1664       C  0.34699152  0.97123222  0.26218900    -0.02380
C1665       C  0.36398012  0.99106746  0.24303751     0.07550
C1666       C  0.34795572  0.01041228  0.22252399    -0.02580
Br1667     Br  0.36840758  0.03130711  0.18890063    -0.01130
Br1668     Br  0.29732234  0.04692919  0.20316607    -0.01200
Br1669     Br  0.36883202  0.94452984  0.29009642    -0.01160
Br1670     Br  0.29434882  0.93675930  0.28174819    -0.01140
C1671       C  0.69372550  0.01758011  0.22629804    -0.02270
C1672       C  0.71034414  0.00242124  0.24990013     0.07420
C1673       C  0.69219312  0.99184240  0.27474884    -0.02380
C1674       C  0.66218693  0.98134959  0.26899599    -0.02380
C1675       C  0.64612520  0.99270329  0.24339285     0.07550
C1676       C  0.66204882  0.01172240  0.22223601    -0.02580
Br1677     Br  0.64204419  0.02729428  0.18573334    -0.01130
Br1678     Br  0.71293766  0.04940796  0.20225886    -0.01200
Br1679     Br  0.64137429  0.95808034  0.30034443    -0.01160
Br1680     Br  0.69122424  0.01872026  0.30996499    -0.01140
C1681       C  0.66060764  0.21429100  0.97796467    -0.02270
C1682       C  0.64526760  0.23556217  0.99724743     0.07420
C1683       C  0.66183581  0.26103506  0.00831146    -0.02380
C1684       C  0.69163483  0.26653987  0.99726080    -0.02380
C1685       C  0.70932292  0.24161358  0.98644474     0.07550
C1686       C  0.69215857  0.21809603  0.97164881    -0.02580
Br1687     Br  0.71021841  0.19419235  0.93919104    -0.01130
Br1688     Br  0.64004941  0.17806074  0.96230480    -0.01200
Br1689     Br  0.69041883  0.30146098  0.97014461    -0.01160
Br1690     Br  0.64192514  0.29241749  0.03208907    -0.01140
C1691       C  0.34502435  0.23397644  0.96107517    -0.02270
C1692       C  0.36081699  0.22934307  0.98966807     0.07420
C1693       C  0.34299288  0.22862199  0.01704241    -0.02380
C1694       C  0.31079254  0.23039864  0.01548503    -0.02380
C1695       C  0.29518635  0.23001247  0.98696031     0.07550
C1696       C  0.31243357  0.23373623  0.95972768    -0.02580
Br1697     Br  0.29195839  0.25011297  0.92342469    -0.01130
Br1698     Br  0.36631933  0.24742141  0.92443534    -0.01200
Br1699     Br  0.28923240  0.24178204  0.05228923    -0.01160
Br1700     Br  0.36106259  0.22705985  0.05796404    -0.01140
C1701       C  0.52958437  0.21941918  0.84457618    -0.02270
C1702       C  0.50862697  0.23697806  0.86186859     0.07420
C1703       C  0.48725012  0.25551345  0.84621063    -0.02380
C1704       C  0.48560171  0.25529980  0.81362023    -0.02380
C1705       C  0.50750128  0.23839742  0.79608818     0.07550
C1706       C  0.53084428  0.22257807  0.81253095    -0.02580
Br1707     Br  0.56652650  0.20615234  0.79216411    -0.01130
Br1708     Br  0.55360928  0.18671708  0.86283982    -0.01200
Br1709     Br  0.45048607  0.27496644  0.79511064    -0.01160
Br1710     Br  0.45873932  0.27977712  0.86990342    -0.01140
C1711       C  0.50202356  0.20938592  0.15493413    -0.02270
C1712       C  0.49627757  0.23738132  0.14001183     0.07420
C1713       C  0.48198570  0.26084700  0.15740498    -0.02380
C1714       C  0.47843137  0.25756969  0.19001147    -0.02380
C1715       C  0.48944722  0.23065514  0.20495367     0.07550
C1716       C  0.49239831  0.20517307  0.18502154    -0.02580
Br1717     Br  0.46740429  0.16889475  0.19091888    -0.01130
Br1718     Br  0.52024325  0.17461562  0.13522270    -0.01200
Br1719     Br  0.45212639  0.28571130  0.21113570    -0.01160
Br1720     Br  0.46765300  0.29707841  0.13664362    -0.01140
C1721       C  0.66452847  0.97147465  0.77302858    -0.02270
C1722       C  0.64879009  0.99224285  0.75357684     0.07420
C1723       C  0.66599356  0.01276072  0.73536476    -0.02380
C1724       C  0.69835035  0.01443418  0.73824759    -0.02380
C1725       C  0.71440079  0.99321661  0.75743475     0.07550
C1726       C  0.69674311  0.97068617  0.77323528    -0.02580
Br1727     Br  0.71583992  0.93638069  0.79387407    -0.01130
Br1728     Br  0.64328480  0.94547427  0.80249252    -0.01200
Br1729     Br  0.71841421  0.04883513  0.71870554    -0.01160
Br1730     Br  0.64486050  0.03926379  0.70665302    -0.01140
C1731       C  0.32343617  0.96393260  0.75923034    -0.02270
C1732       C  0.30657448  0.99026073  0.75002126     0.07420
C1733       C  0.32322432  0.01385210  0.73428353    -0.02380
C1734       C  0.35582846  0.01280858  0.73287829    -0.02380
C1735       C  0.37187317  0.98631997  0.74251227     0.07550
C1736       C  0.35421892  0.96043033  0.75065313    -0.02580
Br1737     Br  0.36784818  0.91918092  0.74193460    -0.01130
Br1738     Br  0.30541789  0.93003524  0.78117022    -0.01200
Br1739     Br  0.37840373  0.04730763  0.71628861    -0.01160
Br1740     Br  0.30328477  0.04923499  0.71662642    -0.01140
C1741       C  0.52329079  0.14931198  0.73301483    -0.02270
C1742       C  0.50384356  0.13205963  0.75228258     0.07420
C1743       C  0.48425292  0.14772319  0.77270619    -0.02380
C1744       C  0.48141462  0.17964755  0.77099337    -0.02380
C1745       C  0.50290377  0.19771189  0.75425842     0.07550
C1746       C  0.52428076  0.18179559  0.73514169    -0.02580
Br1747     Br  0.55789434  0.20217571  0.71463204    -0.01130
Br1748     Br  0.54998363  0.12791805  0.70488421    -0.01200
Br1749     Br  0.44578751  0.19727081  0.79038749    -0.01160
Br1750     Br  0.46467764  0.12733306  0.80716601    -0.01140
C1751       C  0.49287478  0.83787672  0.73137276    -0.02270
C1752       C  0.51387966  0.85296264  0.75116798     0.07420
C1753       C  0.53355472  0.83504365  0.76999391    -0.02380
C1754       C  0.53312300  0.80283870  0.76772541    -0.02380
C1755       C  0.51081299  0.78761368  0.74949035     0.07550
C1756       C  0.49063904  0.80547586  0.73115743    -0.02580
Br1757     Br  0.45800652  0.78620966  0.70790750    -0.01130
Br1758     Br  0.46592129  0.86180007  0.70554177    -0.01200
Br1759     Br  0.56277822  0.77941116  0.79088908    -0.01160
Br1760     Br  0.55797362  0.85295960  0.80284274    -0.01140
C1761       C  0.35379580  0.72294957  0.97892670    -0.02270
C1762       C  0.37055464  0.74210273  0.99908969     0.07420
C1763       C  0.35444173  0.76167183  0.01920693    -0.02380
C1764       C  0.32249975  0.75948104  0.02148000    -0.02380
C1765       C  0.30494884  0.74281065  0.99942534     0.07550
C1766       C  0.32126923  0.72416746  0.97791197    -0.02580
Br1767     Br  0.30125957  0.70267124  0.94446275    -0.01130
Br1768     Br  0.37594150  0.69631849  0.95129038    -0.01200
Br1769     Br  0.30401301  0.77779163  0.05731438    -0.01160
Br1770     Br  0.37422474  0.79555107  0.04062549    -0.01140
C1771       C  0.66489202  0.76614860  0.97178931    -0.02270
C1772       C  0.64775450  0.74623512  0.99084884     0.07420
C1773       C  0.66350754  0.72729283  0.01174051    -0.02380
C1774       C  0.69575925  0.72976744  0.01529871    -0.02380
C1775       C  0.71341234  0.74829209  0.99459602     0.07550
C1776       C  0.69703361  0.76451926  0.97140765    -0.02580
Br1777     Br  0.71752524  0.78353697  0.93696355    -0.01130
Br1778     Br  0.64606435  0.79976239  0.94954383    -0.01200
Br1779     Br  0.71263777  0.71099869  0.05171545    -0.01160
Br1780     Br  0.64019027  0.69898432  0.03689202    -0.01140
C1781       C  0.53462220  0.76086534  0.15334413    -0.02270
C1782       C  0.51442587  0.74157614  0.13668619     0.07420
C1783       C  0.49578228  0.72082759  0.15337379    -0.02380
C1784       C  0.49634041  0.72039691  0.18622115    -0.02380
C1785       C  0.51763536  0.73927710  0.20287413     0.07550
C1786       C  0.53851083  0.75705198  0.18516000    -0.02580
Br1787     Br  0.57511718  0.77452582  0.20287406    -0.01130
Br1788     Br  0.55371204  0.79659000  0.13472651    -0.01200
Br1789     Br  0.46548979  0.69613355  0.20697723    -0.01160
Br1790     Br  0.46811616  0.69419548  0.13095594    -0.01140
C1791       C  0.50977093  0.72495362  0.83631836    -0.02270
C1792       C  0.50150611  0.75143925  0.85271038     0.07420
C1793       C  0.48535343  0.77470491  0.83687992    -0.02380
C1794       C  0.47893411  0.77158733  0.80519000    -0.02380
C1795       C  0.49211315  0.74734947  0.78786405     0.07550
C1796       C  0.50005679  0.72126772  0.80554581    -0.02580
Br1797     Br  0.47187338  0.68721912  0.80250333    -0.01130
Br1798     Br  0.52888125  0.69104428  0.85714853    -0.01200
Br1799     Br  0.44702548  0.79666733  0.78781800    -0.01160
Br1800     Br  0.47400417  0.81232093  0.85728117    -0.01140
C1801       C  0.82163612  0.72285904  0.97336968    -0.02270
C1802       C  0.80462144  0.73878474  0.99617250     0.07420
C1803       C  0.82167325  0.75679002  0.01798046    -0.02380
C1804       C  0.85421334  0.75811661  0.01649795    -0.02380
C1805       C  0.87041616  0.73972678  0.99542658     0.07550
C1806       C  0.85365053  0.72070129  0.97505874    -0.02580
Br1807     Br  0.87267247  0.68746828  0.95240809    -0.01130
Br1808     Br  0.80270032  0.70642856  0.93671746    -0.01200
Br1809     Br  0.87716430  0.78387158  0.04474934    -0.01160
Br1810     Br  0.80270327  0.77759143  0.05220777    -0.01140
C1811       C  0.19824734  0.72009300  0.02781561    -0.02270
C1812       C  0.21400296  0.73441450  0.00304932     0.07420
C1813       C  0.19625933  0.75198966  0.98174643    -0.02380
C1814       C  0.16402507  0.75413560  0.98519366    -0.02380
C1815       C  0.14855720  0.73714857  0.00807113     0.07550
C1816       C  0.16605466  0.71946915  0.02903271    -0.02580
Br1817     Br  0.14759808  0.69038640  0.05734566    -0.01130
Br1818     Br  0.22017649  0.70301516  0.06250908    -0.01200
Br1819     Br  0.14040877  0.77942143  0.95726991    -0.01160
Br1820     Br  0.21373489  0.77086398  0.94552527    -0.01140
C1821       C  0.99716648  0.76083761  0.84745226    -0.02270
C1822       C  0.01755531  0.74143307  0.86325313     0.07420
C1823       C  0.03714487  0.72222158  0.84608957    -0.02380
C1824       C  0.03824520  0.72478629  0.81399829    -0.02380
C1825       C  0.01514991  0.74088366  0.79749080     0.07550
C1826       C  0.99430938  0.75917550  0.81501920    -0.02580
Br1827     Br  0.95866466  0.77866696  0.79750297    -0.01130
Br1828     Br  0.97163935  0.78845804  0.87091316    -0.01200
Br1829     Br  0.07340101  0.70717915  0.79377575    -0.01160
Br1830     Br  0.05905308  0.68813187  0.86444583    -0.01140
C1831       C  0.02386278  0.75513067  0.15671622    -0.02270
C1832       C  0.00237655  0.73731598  0.14008221     0.07420
C1833       C  0.98137481  0.71862597  0.15640992    -0.02380
C1834       C  0.98033465  0.71987734  0.18859535    -0.02380
C1835       C  0.00347538  0.73543919  0.20578120     0.07550
C1836       C  0.02537022  0.75344210  0.18922500    -0.02580
Br1837     Br  0.06011962  0.77307587  0.20896302    -0.01130
Br1838     Br  0.05275834  0.78051322  0.13442033    -0.01200
Br1839     Br  0.94496280  0.70156327  0.20824470    -0.01160
Br1840     Br  0.95668541  0.68705047  0.13652602    -0.01140
C1841       C  0.84655182  0.27775304  0.00691003    -0.02270
C1842       C  0.86077920  0.24918778  0.00255926     0.07420
C1843       C  0.84404501  0.22256779  0.01060708    -0.02380
C1844       C  0.81287973  0.22478962  0.02003031    -0.02380
C1845       C  0.79721897  0.25316938  0.01746581     0.07550
C1846       C  0.81675100  0.27923829  0.01850040    -0.02580
Br1847     Br  0.80887090  0.31224616  0.04696619    -0.01130
Br1848     Br  0.86748944  0.31569997  0.99888197    -0.01200
Br1849     Br  0.80059555  0.19694487  0.05211112    -0.01160
Br1850     Br  0.86414714  0.18333421  0.01022984    -0.01140
C1851       C  0.97987794  0.26467531  0.84153403    -0.02270
C1852       C  0.99956412  0.24498695  0.85813404     0.07420
C1853       C  0.02082346  0.22701518  0.84179448    -0.02380
C1854       C  0.02341157  0.22968651  0.80939866    -0.02380
C1855       C  0.00193707  0.24789085  0.79247057     0.07550
C1856       C  0.97881182  0.26329763  0.80940658    -0.02580
Br1857     Br  0.94319777  0.28095140  0.78978416    -0.01130
Br1858     Br  0.95776319  0.29802040  0.86089992    -0.01200
Br1859     Br  0.05894151  0.21106412  0.79071578    -0.01160
Br1860     Br  0.04785338  0.20004538  0.86440432    -0.01140
C1861       C  0.18771006  0.22683613  0.97015518    -0.02270
C1862       C  0.20649613  0.24347706  0.99127275     0.07420
C1863       C  0.19204554  0.25707571  0.01717741    -0.02380
C1864       C  0.15996831  0.25463881  0.02147042    -0.02380
C1865       C  0.14119510  0.24024035  0.99883038     0.07550
C1866       C  0.15566826  0.22439994  0.97460315    -0.02580
Br1867     Br  0.13147235  0.19866326  0.94732629    -0.01130
Br1868     Br  0.20326857  0.21352400  0.93104564    -0.01200
Br1869     Br  0.14293174  0.27127533  0.05903372    -0.01160
Br1870     Br  0.21582891  0.28034598  0.04704737    -0.01140
C1871       C  0.97637591  0.26170480  0.15109389    -0.02270
C1872       C  0.99722072  0.24317664  0.13458917     0.07420
C1873       C  0.01725099  0.22387977  0.15107710    -0.02380
C1874       C  0.01889829  0.22537068  0.18360002    -0.02380
C1875       C  0.99765978  0.24378746  0.20041878     0.07550
C1876       C  0.97498663  0.25987190  0.18326818    -0.02580
Br1877     Br  0.93987839  0.27838683  0.20280261    -0.01130
Br1878     Br  0.95148274  0.29294454  0.13127910    -0.01200
Br1879     Br  0.05355525  0.20544114  0.20265494    -0.01160
Br1880     Br  0.04324544  0.19579577  0.12873259    -0.01140
C1881       C  0.84918604  0.51212307  0.22594989    -0.02270
C1882       C  0.86572821  0.49213943  0.24538720     0.07420
C1883       C  0.84940786  0.47093194  0.26360985    -0.02380
C1884       C  0.81698997  0.46876698  0.26152237    -0.02380
C1885       C  0.80016223  0.49038483  0.24344720     0.07550
C1886       C  0.81716656  0.51339824  0.22768601    -0.02580
Br1887     Br  0.79779262  0.54897679  0.20979578    -0.01130
Br1888     Br  0.86849935  0.53441526  0.19250592    -0.01200
Br1889     Br  0.79795146  0.43349853  0.28055968    -0.01160
Br1890     Br  0.87202454  0.44334068  0.29002615    -0.01140
C1891       C  0.15744766  0.48189426  0.21834582    -0.02270
C1892       C  0.14285392  0.48925572  0.24622725     0.07420
C1893       C  0.15928963  0.50681734  0.26810225    -0.02380
C1894       C  0.19027298  0.51561050  0.26265387    -0.02380
C1895       C  0.20580250  0.50530726  0.23581921     0.07550
C1896       C  0.18624903  0.49430492  0.21174134    -0.02580
Br1897     Br  0.18943858  0.50840021  0.16953675    -0.01130
Br1898     Br  0.13804727  0.45747584  0.18647406    -0.01200
Br1899     Br  0.20552667  0.55027719  0.28535006    -0.01160
Br1900     Br  0.13896540  0.51885232  0.30555398    -0.01140
C1901       C  0.02841650  0.64504338  0.22798903    -0.02270
C1902       C  0.00867518  0.62840495  0.24760550     0.07420
C1903       C  0.98837460  0.64467381  0.26670463    -0.02380
C1904       C  0.98672789  0.67714233  0.26522063    -0.02380
C1905       C  0.00811014  0.69408319  0.24683446     0.07550
C1906       C  0.03040840  0.67701987  0.23031191    -0.02580
Br1907     Br  0.06610340  0.69609920  0.21219773    -0.01130
Br1908     Br  0.04941935  0.62592244  0.19370463    -0.01200
Br1909     Br  0.95235385  0.69601126  0.28562894    -0.01160
Br1910     Br  0.96136782  0.62190669  0.29363349    -0.01140
C1911       C  0.02515486  0.33440838  0.22552969    -0.02270
C1912       C  0.00466168  0.35053626  0.24477746     0.07420
C1913       C  0.98399268  0.33384795  0.26320684    -0.02380
C1914       C  0.98170962  0.30156316  0.26054298    -0.02380
C1915       C  0.00288952  0.28500203  0.24179598     0.07550
C1916       C  0.02577006  0.30223505  0.22599464    -0.02580
Br1917     Br  0.06024811  0.28276769  0.20617901    -0.01130
Br1918     Br  0.05073070  0.35506513  0.19531282    -0.01200
Br1919     Br  0.94637385  0.28267983  0.27950888    -0.01160
Br1920     Br  0.95798521  0.35569604  0.29173186    -0.01140
C1921       C  0.27613807  0.49911756  0.84124011    -0.02270
C1922       C  0.24851510  0.49388301  0.85735884     0.07420
C1923       C  0.22081231  0.50057422  0.84210121    -0.02380
C1924       C  0.22101861  0.51122857  0.81170561    -0.02380
C1925       C  0.24744226  0.50766630  0.79301088     0.07550
C1926       C  0.27550469  0.50829343  0.80978584    -0.02580
Br1927     Br  0.30513591  0.53943742  0.79913631    -0.01130
Br1928     Br  0.31474242  0.49604768  0.86270668    -0.01200
Br1929     Br  0.18934862  0.54005780  0.80075322    -0.01160
Br1930     Br  0.18189605  0.49594194  0.86224066    -0.01140
C1931       C  0.26894956  0.51853316  0.15043084    -0.02270
C1932       C  0.26286852  0.49030639  0.13554107     0.07420
C1933       C  0.25643862  0.46441834  0.15422818    -0.02380
C1934       C  0.25080130  0.46822611  0.18603851    -0.02380
C1935       C  0.25218840  0.49785951  0.19979963     0.07550
C1936       C  0.25935116  0.52319928  0.18084572    -0.02580
Br1937     Br  0.24315387  0.56343104  0.19042107    -0.01130
Br1938     Br  0.29171229  0.55084307  0.13042930    -0.01200
Br1939     Br  0.23223343  0.43417762  0.20743416    -0.01160
Br1940     Br  0.25445226  0.42340549  0.13703119    -0.01140
C1941       C  0.27418154  0.64335493  0.01613796    -0.02270
C1942       C  0.25430766  0.62715805  0.99620724     0.07420
C1943       C  0.23434565  0.64381742  0.97686269    -0.02380
C1944       C  0.23691787  0.67574138  0.97491236    -0.02380
C1945       C  0.25430005  0.69277943  0.99684760     0.07550
C1946       C  0.27329469  0.67585878  0.01771525    -0.02580
Br1947     Br  0.29603312  0.69488296  0.05092957    -0.01130
Br1948     Br  0.30141862  0.62043302  0.04268933    -0.01200
Br1949     Br  0.21830476  0.69474096  0.93942655    -0.01160
Br1950     Br  0.19948654  0.62482406  0.95622954    -0.01140
C1951       C  0.22438021  0.30361410  0.96961679    -0.02270
C1952       C  0.24859241  0.28477698  0.98095632     0.07420
C1953       C  0.27335013  0.30129295  0.99612530    -0.02380
C1954       C  0.26944414  0.33199415  0.00607200    -0.02380
C1955       C  0.24380034  0.34855144  0.99671550     0.07550
C1956       C  0.22048919  0.33372001  0.98010583    -0.02580
Br1957     Br  0.18099039  0.35300112  0.97542169    -0.01130
Br1958     Br  0.19799777  0.29097343  0.93623019    -0.01200
Br1959     Br  0.30138014  0.35355575  0.02900700    -0.01160
Br1960     Br  0.31550781  0.29776224  0.98408349    -0.01140
C1961       C  0.16086072  0.51179904  0.73170027    -0.02270
C1962       C  0.14473683  0.48876106  0.74799352     0.07420
C1963       C  0.16182878  0.46516288  0.76280912    -0.02380
C1964       C  0.19417309  0.46647890  0.76338162    -0.02380
C1965       C  0.20999353  0.49167760  0.75042923     0.07550
C1966       C  0.19313729  0.51404249  0.73397548    -0.02580
Br1967     Br  0.21351725  0.54992977  0.71802450    -0.01130
Br1968     Br  0.13885711  0.54068720  0.70627046    -0.01200
Br1969     Br  0.21712968  0.43399885  0.78287096    -0.01160
Br1970     Br  0.14246941  0.43143627  0.78448572    -0.01140
C1971       C  0.02658902  0.33877802  0.77026025    -0.02270
C1972       C  0.00663411  0.35506880  0.75054045     0.07420
C1973       C  0.98608968  0.33846720  0.73163388    -0.02380
C1974       C  0.98461401  0.30599505  0.73320157    -0.02380
C1975       C  0.00624002  0.28948333  0.75162928     0.07550
C1976       C  0.02855499  0.30683168  0.76817367    -0.02580
Br1977     Br  0.06425701  0.28807319  0.78655243    -0.01130
Br1978     Br  0.04805821  0.35826102  0.80434272    -0.01200
Br1979     Br  0.95031576  0.28638035  0.71269571    -0.01160
Br1980     Br  0.95858531  0.36073075  0.70481438    -0.01140
C1981       C  0.98691836  0.68228777  0.77307491    -0.02270
C1982       C  0.00922792  0.69943455  0.75647096     0.07420
C1983       C  0.03003792  0.68271868  0.73743403    -0.02380
C1984       C  0.02770219  0.65031408  0.73516614    -0.02380
C1985       C  0.00700637  0.63383231  0.75381641     0.07550
C1986       C  0.98788827  0.65020158  0.77415884    -0.02580
Br1987     Br  0.96600481  0.63025024  0.80746988    -0.01130
Br1988     Br  0.95226586  0.70160044  0.79259252    -0.01200
Br1989     Br  0.05410165  0.62790380  0.70753213    -0.01160
Br1990     Br  0.06423165  0.70194490  0.71673419    -0.01140
C1991       C  0.81879918  0.47707747  0.73422868    -0.02270
C1992       C  0.80459299  0.50266126  0.74866471     0.07420
C1993       C  0.82317497  0.52845569  0.75617607    -0.02380
C1994       C  0.85474327  0.52867732  0.74950060    -0.02380
C1995       C  0.86953564  0.50126817  0.74035186     0.07550
C1996       C  0.85098875  0.47667773  0.72977587    -0.02580
Br1997     Br  0.86931391  0.44238462  0.70862448    -0.01130
Br1998     Br  0.79695091  0.43874788  0.72967695    -0.01200
Br1999     Br  0.87630642  0.56770042  0.75105819    -0.01160
Br2000     Br  0.80611306  0.56406064  0.77630869    -0.01140
C2001       C  0.73980392  0.34122746  0.01954109    -0.02270
C2002       C  0.75399985  0.35560530  0.99397493     0.07420
C2003       C  0.76778787  0.33677314  0.97111203    -0.02380
C2004       C  0.76656897  0.30461351  0.97373106    -0.02380
C2005       C  0.75542197  0.29062756  0.00073897     0.07550
C2006       C  0.74166485  0.30910485  0.02357520    -0.02580
Br2007     Br  0.72808899  0.29073679  0.06160852    -0.01130
Br2008     Br  0.71898195  0.36555468  0.05014329    -0.01200
Br2009     Br  0.78157789  0.27958359  0.94050498    -0.01160
Br2010     Br  0.79312263  0.35295155  0.93833520    -0.01140
C2011       C  0.74354075  0.64901944  0.97901665    -0.02270
C2012       C  0.75426447  0.63305509  0.00529332     0.07420
C2013       C  0.76444204  0.65077815  0.03065641    -0.02380
C2014       C  0.77227593  0.68182659  0.02666012    -0.02380
C2015       C  0.76211018  0.69832739  0.00035014     0.07550
C2016       C  0.74558540  0.68152511  0.97732179    -0.02580
Br2017     Br  0.72730101  0.70117818  0.94188538    -0.01130
Br2018     Br  0.72466984  0.62638015  0.94552604    -0.01200
Br2019     Br  0.79430291  0.70139501  0.06003439    -0.01160
Br2020     Br  0.76150296  0.63634596  0.07260707    -0.01140
C2021       C  0.74019719  0.50719442  0.15263569    -0.02270
C2022       C  0.75956633  0.48742315  0.13605965     0.07420
C2023       C  0.77870283  0.46706761  0.15244511    -0.02380
C2024       C  0.77584410  0.46417844  0.18437350    -0.02380
C2025       C  0.75914212  0.48601653  0.20184653     0.07550
C2026       C  0.74101152  0.50779040  0.18526366    -0.02580
Br2027     Br  0.72029437  0.54145873  0.20507278    -0.01130
Br2028     Br  0.71389046  0.53496237  0.13017745    -0.01200
Br2029     Br  0.79387610  0.42825199  0.20293082    -0.01160
Br2030     Br  0.81305644  0.44643384  0.13322400    -0.01140
C2031       C  0.77591784  0.47619390  0.84428608    -0.02270
C2032       C  0.75547160  0.49626528  0.85934924     0.07420
C2033       C  0.74018354  0.51866909  0.84168394    -0.02380
C2034       C  0.74577999  0.52166299  0.80964253    -0.02380
C2035       C  0.76711624  0.50205580  0.79444202     0.07550
C2036       C  0.78441421  0.48162961  0.81364049    -0.02580
Br2037     Br  0.82356481  0.46376680  0.80288713    -0.01130
Br2038     Br  0.79307080  0.43999554  0.86422177    -0.01200
Br2039     Br  0.72824264  0.55677172  0.78926317    -0.01160
Br2040     Br  0.71029651  0.54457576  0.86156250    -0.01140
C2041       C  0.28823399  0.47259633  0.65608686    -0.02270
C2042       C  0.26329730  0.48617008  0.64041058     0.07420
C2043       C  0.23572468  0.49026473  0.65660483    -0.02380
C2044       C  0.23340345  0.48043258  0.68750480    -0.02380
C2045       C  0.26038699  0.47508453  0.70504877     0.07550
C2046       C  0.28568688  0.46472706  0.68738814    -0.02580
Br2047     Br  0.31334352  0.43423382  0.70339694    -0.01130
Br2048     Br  0.32690443  0.46610547  0.63583481    -0.01200
Br2049     Br  0.20118836  0.45034043  0.69185691    -0.01160
Br2050     Br  0.19948629  0.50413915  0.63535927    -0.01140
C2051       C  0.27287575  0.52210549  0.30990691    -0.02270
C2052       C  0.25674273  0.50106848  0.29063991     0.07420
C2053       C  0.24003809  0.47715080  0.30581135    -0.02380
C2054       C  0.24037559  0.47476111  0.33852879    -0.02380
C2055       C  0.25917945  0.49428316  0.35650627     0.07550
C2056       C  0.27729902  0.51635516  0.34126364    -0.02580
Br2057     Br  0.31199156  0.53646145  0.36099637    -0.01130
Br2058     Br  0.28247465  0.56325582  0.29740905    -0.01200
Br2059     Br  0.21601399  0.44384182  0.35900033    -0.01160
Br2060     Br  0.21582018  0.44749967  0.28344768    -0.01140
C2061       C  0.24339766  0.68145905  0.51646751    -0.02270
C2062       C  0.26086779  0.69763493  0.49379775     0.07420
C2063       C  0.27465439  0.67984085  0.47009028    -0.02380
C2064       C  0.27419795  0.64748681  0.47075702    -0.02380
C2065       C  0.25818827  0.63160876  0.49429640     0.07550
C2066       C  0.24157455  0.64892492  0.51600272    -0.02580
Br2067     Br  0.21577724  0.62771897  0.54534925    -0.01130
Br2068     Br  0.22432308  0.70175275  0.55091774    -0.01200
Br2069     Br  0.29770329  0.62611717  0.43947740    -0.01160
Br2070     Br  0.29284676  0.69913352  0.43444503    -0.01140
C2071       C  0.28500432  0.33714245  0.51197523    -0.02270
C2072       C  0.25725279  0.35210592  0.50528111     0.07420
C2073       C  0.22960973  0.33550439  0.50995273    -0.02380
C2074       C  0.23044978  0.30350940  0.51699660    -0.02380
C2075       C  0.25870583  0.28765042  0.51574031     0.07550
C2076       C  0.28485886  0.30649036  0.52119784    -0.02580
Br2077     Br  0.31622342  0.29496391  0.55045448    -0.01130
Br2078     Br  0.32401084  0.35781745  0.50944619    -0.01200
Br2079     Br  0.19839287  0.28704081  0.54258697    -0.01160
Br2080     Br  0.19100761  0.35659629  0.50783705    -0.01140
C2081       C  0.48319289  0.65067118  0.72927493    -0.02270
C2082       C  0.50599411  0.63326940  0.74499091     0.07420
C2083       C  0.52958319  0.64905844  0.76105968    -0.02380
C2084       C  0.53247435  0.68123898  0.75866663    -0.02380
C2085       C  0.51041525  0.69837559  0.74205343     0.07550
C2086       C  0.48521468  0.68293779  0.72850705    -0.02580
Br2087     Br  0.45365033  0.70623484  0.70791378    -0.01130
Br2088     Br  0.44970261  0.63177729  0.70652078    -0.01200
Br2089     Br  0.56843434  0.70123869  0.77544359    -0.01160
Br2090     Br  0.55806395  0.62683940  0.78680949    -0.01140
C2091       C  0.66283603  0.51889697  0.72594593    -0.02270
C2092       C  0.64711163  0.49736126  0.74454988     0.07420
C2093       C  0.66453832  0.47879120  0.76468791    -0.02380
C2094       C  0.69722774  0.48003903  0.76469312    -0.02380
C2095       C  0.71312596  0.50143822  0.74548483     0.07550
C2096       C  0.69488242  0.52233352  0.72826465    -0.02580
Br2097     Br  0.71266795  0.55794000  0.70884727    -0.01130
Br2098     Br  0.64200743  0.54195277  0.69385557    -0.01200
Br2099     Br  0.71872743  0.44939536  0.78846622    -0.01160
Br2100     Br  0.64338919  0.45073315  0.79177745    -0.01140
C2101       C  0.34960556  0.47632246  0.76474254    -0.02270
C2102       C  0.36499990  0.49749098  0.74550185     0.07420
C2103       C  0.34725079  0.51694130  0.72626726    -0.02380
C2104       C  0.31496906  0.51618636  0.72765259    -0.02380
C2105       C  0.29951776  0.49357508  0.74516554     0.07550
C2106       C  0.31720062  0.47355879  0.76380889    -0.02580
Br2107     Br  0.29774608  0.44006040  0.78529767    -0.01130
Br2108     Br  0.37313681  0.44971636  0.79124149    -0.01200
Br2109     Br  0.29177332  0.54569829  0.70409518    -0.01160
Br2110     Br  0.36555727  0.54136072  0.69386672    -0.01140
C2111       C  0.47972604  0.33802940  0.72870845    -0.02270
C2112       C  0.50036871  0.35480632  0.74753906     0.07420
C2113       C  0.52121302  0.33859466  0.76624281    -0.02380
C2114       C  0.52279861  0.30612165  0.76480404    -0.02380
C2115       C  0.50094775  0.28910275  0.74687875     0.07550
C2116       C  0.47793832  0.30602185  0.73110553    -0.02580
Br2117     Br  0.44196809  0.28642658  0.71370443    -0.01130
Br2118     Br  0.45713664  0.35684438  0.69514991    -0.01200
Br2119     Br  0.55790377  0.28733196  0.78418781    -0.01160
Br2120     Br  0.54911762  0.36142817  0.79247285    -0.01140
C2121       C  0.77240288  0.64340306  0.48102813    -0.02270
C2122       C  0.75403800  0.62673782  0.50182797     0.07420
C2123       C  0.73668612  0.64307956  0.52389084    -0.02380
C2124       C  0.73762925  0.67534924  0.52470128    -0.02380
C2125       C  0.75318805  0.69263540  0.50167210     0.07550
C2126       C  0.77129798  0.67589437  0.47999823    -0.02580
Br2127     Br  0.79207894  0.69502626  0.44585364    -0.01130
Br2128     Br  0.79915228  0.62126323  0.45339516    -0.01200
Br2129     Br  0.71885963  0.69496063  0.55974790    -0.01160
Br2130     Br  0.70892883  0.62256152  0.55225777    -0.01140
C2131       C  0.73913264  0.46841603  0.68856511    -0.02270
C2132       C  0.75337421  0.49411342  0.70333687     0.07420
C2133       C  0.77016628  0.51496699  0.68423655    -0.02380
C2134       C  0.77207814  0.51013166  0.65209943    -0.02380
C2135       C  0.75477278  0.48680419  0.63760931     0.07550
C2136       C  0.73890323  0.46535816  0.65623288    -0.02580
Br2137     Br  0.71483582  0.43202695  0.63851465    -0.01130
Br2138     Br  0.71984614  0.43576466  0.71171496    -0.01200
Br2139     Br  0.79902033  0.53567206  0.62751257    -0.01160
Br2140     Br  0.78740006  0.55310064  0.69908807    -0.01140
C2141       C  0.73077954  0.29598418  0.47419137    -0.02270
C2142       C  0.74877082  0.27936519  0.49563966     0.07420
C2143       C  0.76843292  0.29613780  0.51576692    -0.02380
C2144       C  0.76857251  0.32871960  0.51536873    -0.02380
C2145       C  0.74840759  0.34510791  0.49584633     0.07550
C2146       C  0.72944154  0.32827551  0.47516048    -0.02580
Br2147     Br  0.69865400  0.34814342  0.44988739    -0.01130
Br2148     Br  0.70870661  0.27445300  0.44191539    -0.01200
Br2149     Br  0.79625348  0.35104030  0.54213875    -0.01160
Br2150     Br  0.79337330  0.27528945  0.54594369    -0.01140
C2151       C  0.73432007  0.46191321  0.31021857    -0.02270
C2152       C  0.75048979  0.48466500  0.29324840     0.07420
C2153       C  0.76884206  0.50613999  0.31027919    -0.02380
C2154       C  0.77073745  0.50410204  0.34278691    -0.02380
C2155       C  0.75187940  0.48343412  0.35906301     0.07550
C2156       C  0.73229886  0.46350521  0.34232245    -0.02580
Br2157     Br  0.69838485  0.44172740  0.36139060    -0.01130
Br2158     Br  0.71603177  0.42640259  0.29064403    -0.01200
Br2159     Br  0.79792735  0.53107781  0.36559205    -0.01160
Br2160     Br  0.78835746  0.54128884  0.29154191    -0.01140
C2161       C  0.66345904  0.72242664  0.46971866    -0.02270
C2162       C  0.64664465  0.73737276  0.49319704     0.07420
C2163       C  0.66296421  0.75361122  0.51620066    -0.02380
C2164       C  0.69537541  0.75180637  0.51830733    -0.02380
C2165       C  0.71231496  0.73425929  0.49643036     0.07550
C2166       C  0.69569036  0.72083874  0.47148069    -0.02580
Br2167     Br  0.71655866  0.70197399  0.43721509    -0.01130
Br2168     Br  0.64360980  0.70316243  0.43438020    -0.01200
Br2169     Br  0.71442319  0.77109458  0.55366335    -0.01160
Br2170     Br  0.64066068  0.77934173  0.54466159    -0.01140
C2171       C  0.53419347  0.71050521  0.68280081    -0.02270
C2172       C  0.52781246  0.73667378  0.70115399     0.07420
C2173       C  0.52579425  0.76441676  0.68418460    -0.02380
C2174       C  0.51664750  0.76376551  0.65270988    -0.02380
C2175       C  0.51470370  0.73564013  0.63668628     0.07550
C2176       C  0.52419318  0.70894067  0.65215958    -0.02580
Br2177     Br  0.52360591  0.66950096  0.63223027    -0.01130
Br2178     Br  0.56480874  0.68119173  0.69522640    -0.01200
Br2179     Br  0.50955569  0.80158462  0.63102250    -0.01160
Br2180     Br  0.55479446  0.79644566  0.69423098    -0.01140
C2181       C  0.35231252  0.75725331  0.47602998    -0.02270
C2182       C  0.36894763  0.73944280  0.49746335     0.07420
C2183       C  0.35244698  0.72205827  0.51946046    -0.02380
C2184       C  0.32026101  0.72343433  0.52050511    -0.02380
C2185       C  0.30305528  0.73850643  0.49713910     0.07550
C2186       C  0.31975969  0.75596506  0.47490694    -0.02580
Br2187     Br  0.29998204  0.77588001  0.44048144    -0.01130
Br2188     Br  0.37437357  0.78332456  0.44758677    -0.01200
Br2189     Br  0.30075586  0.70663617  0.55663683    -0.01160
Br2190     Br  0.37241178  0.69318592  0.54701999    -0.01140
C2191       C  0.54206379  0.74420719  0.34327640    -0.02270
C2192       C  0.51378564  0.74688246  0.35885521     0.07420
C2193       C  0.48689128  0.75038930  0.34061306    -0.02380
C2194       C  0.48816254  0.74624828  0.30820098    -0.02380
C2195       C  0.51593009  0.73685343  0.29409188     0.07550
C2196       C  0.54252137  0.73434216  0.31261006    -0.02580
Br2197     Br  0.57931882  0.71479676  0.29753356    -0.01130
Br2198     Br  0.57991865  0.75983680  0.36055841    -0.01200
Br2199     Br  0.45039235  0.74504376  0.28503542    -0.01160
Br2200     Br  0.44800593  0.75990356  0.35949360    -0.01140
C2201       C  0.65991730  0.50910591  0.27052507    -0.02270
C2202       C  0.64349094  0.48917905  0.25071849     0.07420
C2203       C  0.65996527  0.46893082  0.23171969    -0.02380
C2204       C  0.69246653  0.46767586  0.23333886    -0.02380
C2205       C  0.70913144  0.48919519  0.25195143     0.07550
C2206       C  0.69190326  0.51126597  0.26857435    -0.02580
Br2207     Br  0.71091673  0.54676290  0.28745349    -0.01130
Br2208     Br  0.64041924  0.53029930  0.30446963    -0.01200
Br2209     Br  0.71195757  0.43366123  0.21285866    -0.01160
Br2210     Br  0.63749171  0.44152313  0.20472821    -0.01140
C2211       C  0.34942747  0.51930347  0.24970546    -0.02270
C2212       C  0.36311068  0.48980806  0.24817579     0.07420
C2213       C  0.34309723  0.46439097  0.24424861    -0.02380
C2214       C  0.31119461  0.46780961  0.24909674    -0.02380
C2215       C  0.29736512  0.49726870  0.24840087     0.07550
C2216       C  0.31771739  0.52258425  0.24452121    -0.02580
Br2217     Br  0.30566409  0.56151603  0.22810338    -0.01130
Br2218     Br  0.37157624  0.55642134  0.26141944    -0.01200
Br2219     Br  0.28854219  0.43146103  0.25932120    -0.01160
Br2220     Br  0.35772708  0.42533592  0.22943457    -0.01140
C2221       C  0.51763271  0.33012842  0.22657026    -0.02270
C2222       C  0.50793642  0.34732665  0.25242946     0.07420
C2223       C  0.50744788  0.33248106  0.28110228    -0.02380
C2224       C  0.51607979  0.30186359  0.28326070    -0.02380
C2225       C  0.51482232  0.28250389  0.25702480     0.07550
C2226       C  0.52209224  0.29774607  0.22904628    -0.02580
Br2227     Br  0.54760463  0.27805593  0.19901024    -0.01130
Br2228     Br  0.52514167  0.35093529  0.18826928    -0.01200
Br2229     Br  0.54359682  0.29288378  0.31702367    -0.01160
Br2230     Br  0.49816448  0.35359479  0.31877135    -0.01140
C2231       C  0.52784574  0.64187598  0.22997860    -0.02270
C2232       C  0.50512185  0.62570511  0.24673595     0.07420
C2233       C  0.48901885  0.64179791  0.26977812    -0.02380
C2234       C  0.49848232  0.67137122  0.27833075    -0.02380
C2235       C  0.51668581  0.68995425  0.25814900     0.07550
C2236       C  0.53350888  0.67369356  0.23533981    -0.02580
Br2237     Br  0.56935316  0.69185464  0.21680989    -0.01130
Br2238     Br  0.55129519  0.62003527  0.19945537    -0.01200
Br2239     Br  0.49747456  0.67668533  0.32263598    -0.01160
Br2240     Br  0.45569828  0.62390686  0.29350602    -0.01140
C2241       C  0.52481434  0.26681529  0.65524278    -0.02270
C2242       C  0.50498430  0.24672989  0.63903880     0.07420
C2243       C  0.48462350  0.22797573  0.65584570    -0.02380
C2244       C  0.48344307  0.22981380  0.68841812    -0.02380
C2245       C  0.50506343  0.24848156  0.70489633     0.07550
C2246       C  0.52694987  0.26525225  0.68736389    -0.02580
Br2247     Br  0.56236246  0.28465604  0.70609341    -0.01130
Br2248     Br  0.54589753  0.30057121  0.63516893    -0.01200
Br2249     Br  0.44950002  0.20932293  0.70831809    -0.01160
Br2250     Br  0.45694722  0.20094888  0.63372907    -0.01140
C2251       C  0.51903772  0.22174815  0.34556343    -0.02270
C2252       C  0.49616138  0.23883147  0.36072453     0.07420
C2253       C  0.47433749  0.25498918  0.34261541    -0.02380
C2254       C  0.47505590  0.25293116  0.31029800    -0.02380
C2255       C  0.50045244  0.23958438  0.29509971     0.07550
C2256       C  0.52246736  0.22372913  0.31324636    -0.02580
Br2257     Br  0.56093664  0.21093177  0.29606242    -0.01130
Br2258     Br  0.54764867  0.19776576  0.36953656    -0.01200
Br2259     Br  0.44264570  0.27226947  0.28696784    -0.01160
Br2260     Br  0.44697669  0.28539523  0.35994171    -0.01140
C2261       C  0.31304440  0.25959555  0.47616288    -0.02270
C2262       C  0.29734163  0.24567387  0.50113435     0.07420
C2263       C  0.31493895  0.22839276  0.52262726    -0.02380
C2264       C  0.34685401  0.22479749  0.51867129    -0.02380
C2265       C  0.36262533  0.24184789  0.49617858     0.07550
C2266       C  0.34534532  0.25885318  0.47433807    -0.02580
Br2267     Br  0.36477205  0.28435743  0.44332117    -0.01130
Br2268     Br  0.29094550  0.28338883  0.44591750    -0.01200
Br2269     Br  0.36941469  0.19733222  0.54529632    -0.01160
Br2270     Br  0.29882512  0.21688942  0.56208737    -0.01140
C2271       C  0.66091420  0.26393031  0.52460130    -0.02270
C2272       C  0.64410919  0.24832586  0.50118285     0.07420
C2273       C  0.65987479  0.22749481  0.48224826    -0.02380
C2274       C  0.68931649  0.21794958  0.49100060    -0.02380
C2275       C  0.70834652  0.23826549  0.50831542     0.07550
C2276       C  0.69270642  0.25855549  0.52832477    -0.02580
Br2277     Br  0.71391891  0.27689637  0.56276584    -0.01130
Br2278     Br  0.64234816  0.29602972  0.54897069    -0.01200
Br2279     Br  0.68242780  0.17790161  0.50832707    -0.01160
Br2280     Br  0.63919884  0.20475482  0.45006872    -0.01140
loop_ 
_geom_bond_atom_site_label_1 
_geom_bond_atom_site_label_2 
_geom_bond_distance 
_geom_bond_site_symmetry_2 
_ccdc_geom_bond_type 
C1           N19   1.347       .  A
C1           C38   1.451       .  S
C1          C160   1.452       .  S
N2           N19   1.322       .  A
N2           N24   1.319       .  A
N2          Co39   2.080       .  S
C3           N28   1.337       .  A
C3           C41   1.463       .  S
C3           H48   1.081       .  S
H4           C45   1.082       .  S
C5           N29   1.337       .  A
C5            C9   1.452       .  S
C5           H34   1.082       .  S
Co6          N24   2.062       .  S
Co6          N14   2.056       .  S
Co6          N46   2.082       .  S
Co6          N22   2.098       .  S
Co6         Cl50   2.465       .  S
N7           C45   1.341       .  A
N7           N14   1.317       .  A
N7           Co8   2.080       .  S
Co8          N11   2.082       .  S
Co8          N28   2.080       .  S
Co8          N15   2.076       .  S
Co8         Cl50   2.420       .  S
C9           N47   1.348       .  A
C9          C266   1.455       .  S
N10          N17   1.318       .  A
N10          N40   1.324       .  A
N10         Co43   2.072       .  S
N11          N29   1.318       .  A
N11          N47   1.324       .  A
N12          C41   1.357       .  A
N12          N22   1.326       .  A
H13          C38   1.082       .  S
N14          N35   1.321       .  A
N15          N33   1.319       .  A
N15          N20   1.321       .  A
C16          N20   1.347       .  A
C16          C44   1.471       .  S
C16        C2265   1.494       .  S
N17          C32   1.341       .  A
N17         Co39   2.084       .  S
C18          N46   1.343       .  A
C18          C21   1.463       .  S
C18          H52   1.081       .  S
C21          N42   1.348       .  A
C21        C2272   1.491       .  S
N22          N28   1.319       .  A
N23          C49   1.339       .  A
N23          N25   1.322       .  A
N23         Co39   2.092       .  S
N24          C38   1.337       .  A
N25          N53   1.324       .  A
N25         Co43   2.086       .  S
H26          C49   1.082       .  S
H27          C44   1.081       .  S
N29         Co43   2.062       .  S
N30          N42   1.322       .  A
N30          N46   1.323       .  A
N30         Co39   2.088       .  S
C31          N35   1.343       .  A
C31          C45   1.457       .  S
C31         C104   1.453       .  S
C32          C51   1.457       .  S
C32          H36   1.082       .  S
N33          C44   1.342       .  A
N33         Co43   2.093       .  S
C37          N53   1.352       .  A
C37          C49   1.466       .  S
C37        C2242   1.490       .  S
Co39        Cl50   2.418       .  S
N40          C51   1.347       .  A
C41        C2252   1.496       .  S
Co43        Cl50   2.466       .  S
C51         C263   1.463       .  S
C54          N72   1.345       .  A
C54          C91   1.460       .  S
C54         C210   1.463       .  S
N55          N72   1.323       .  A
N55          N77   1.318       .  A
N55         Co92   2.067       .  S
C56          N81   1.343       .  A
C56          C94   1.474       .  S
C56         H101   1.081       .  S
H57          C98   1.081       .  S
C58          N82   1.340       .  A
C58          C62   1.456       .  S
C58          H87   1.082       .  S
Co59         N77   2.092       .  S
Co59         N67   2.076       .  S
Co59         N99   2.086       .  S
Co59         N75   2.085       .  S
Co59       Cl103   2.447       .  S
N60          C98   1.343       .  A
N60          N67   1.319       .  A
N60         Co61   2.090       .  S
Co61         N64   2.098       .  S
Co61         N81   2.101       .  S
Co61         N68   2.089       .  S
Co61       Cl103   2.433       .  S
C62         N100   1.352       .  A
C62         C296   1.470       .  S
N63          N70   1.318       .  A
N63          N93   1.323       .  A
N63         Co96   2.065       .  S
N64          N82   1.320       .  A
N64         N100   1.328       .  A
N65          C94   1.354       .  A
N65          N75   1.324       .  A
H66          C91   1.082       .  S
N67          N88   1.324       .  A
N68          N86   1.319       .  A
N68          N73   1.319       .  A
C69          N73   1.349       .  A
C69          C97   1.474       .  S
C69        C2212   1.509       .  S
N70          C85   1.339       .  A
N70         Co92   2.075       .  S
C71          N99   1.337       .  A
C71          C74   1.464       .  S
C71         H105   1.082       .  S
C74          N95   1.353       .  A
C74        C2202   1.488       .  S
N75          N81   1.318       .  A
N76         C102   1.341       .  A
N76          N78   1.321       .  A
N76         Co92   2.091       .  S
N77          C91   1.343       .  A
N78         N106   1.329       .  A
N78         Co96   2.115       .  S
H79         C102   1.082       .  S
H80          C97   1.078       .  S
N82         Co96   2.078       .  S
N83          N95   1.325       .  A
N83          N99   1.320       .  A
N83         Co92   2.087       .  S
C84          N88   1.348       .  A
C84          C98   1.459       .  S
C84         C107   1.465       .  S
C85         C104   1.456       .  S
C85          H89   1.082       .  S
N86          C97   1.341       .  A
N86         Co96   2.079       .  S
C90         N106   1.360       .  A
C90         C102   1.465       .  S
C90        C2222   1.491       .  S
Co92       Cl103   2.447       .  S
N93         C104   1.345       .  A
C94        C2232   1.501       .  S
Co96       Cl103   2.456       .  S
C107        N125   1.349       .  A
C107        C144   1.456       .  S
N108        N125   1.326       .  A
N108        N130   1.319       .  A
N108       Co145   2.086       .  S
C109        N134   1.341       .  A
C109        C147   1.470       .  S
C109        H154   1.082       .  S
H110        C151   1.082       .  S
C111        N135   1.341       .  A
C111        C115   1.458       .  S
C111        H140   1.082       .  S
Co112       N130   2.079       .  S
Co112       N120   2.086       .  S
Co112       N152   2.072       .  S
Co112       N128   2.087       .  S
Co112      Cl156   2.430       .  S
N113        C151   1.338       .  A
N113        N120   1.317       .  A
N113       Co114   2.062       .  S
Co114       N117   2.075       .  S
Co114       N134   2.079       .  S
Co114       N121   2.090       .  S
Co114      Cl156   2.453       .  S
C115        N153   1.346       .  A
C115        C243   1.458       .  S
N116        N123   1.320       .  A
N116        N146   1.324       .  A
N116       Co149   2.094       .  S
N117        N135   1.318       .  A
N117        N153   1.322       .  A
N118        C147   1.349       .  A
N118        N128   1.320       .  A
H119        C144   1.082       .  S
N120        N141   1.325       .  A
N121        N139   1.321       .  A
N121        N126   1.324       .  A
C122        N126   1.352       .  A
C122        C150   1.472       .  S
C122       C2175   1.493       .  S
N123        C138   1.341       .  A
N123       Co145   2.071       .  S
C124        N152   1.331       .  A
C124        C127   1.470       .  S
C124        H158   1.074       .  S
C127        N148   1.362       .  A
C127       C2192   1.509       .  S
N128        N134   1.317       .  A
N129        C155   1.341       .  A
N129        N131   1.324       .  A
N129       Co145   2.089       .  S
N130        C144   1.340       .  A
N131        N159   1.323       .  A
N131       Co149   2.102       .  S
H132        C155   1.082       .  S
H133        C150   1.081       .  S
N135       Co149   2.077       .  S
N136        N148   1.329       .  A
N136        N152   1.316       .  A
N136       Co145   2.105       .  S
C137        N141   1.350       .  A
C137        C151   1.452       .  S
C137        C168   1.460       .  S
C138        C157   1.454       .  S
C138        H142   1.082       .  S
N139        C150   1.349       .  A
N139       Co149   2.107       .  S
C143        N159   1.351       .  A
C143        C155   1.465       .  S
C143       C2182   1.497       .  S
Co145      Cl156   2.463       .  S
N146        C157   1.349       .  A
C147       C2162   1.498       .  S
Co149      Cl156   2.440       .  S
C157        C274   1.462       .  S
C160        N178   1.348       .  A
C160        C197   1.450       .  S
N161        N178   1.323       .  A
N161        N183   1.318       .  A
N161       Co198   2.082       .  S
C162        N187   1.339       .  A
C162        C200   1.466       .  S
C162        H207   1.082       .  S
H163        C204   1.082       .  S
C164        N188   1.338       .  A
C164        C168   1.451       .  S
C164        H193   1.082       .  S
Co165       N183   2.060       .  S
Co165       N173   2.088       .  S
Co165       N205   2.095       .  S
Co165       N181   2.089       .  S
Co165      Cl209   2.454       .  S
N166        C204   1.339       .  A
N166        N173   1.318       .  A
N166       Co167   2.062       .  S
Co167       N170   2.092       .  S
Co167       N187   2.085       .  S
Co167       N174   2.086       .  S
Co167      Cl209   2.433       .  S
C168        N206   1.350       .  A
N169        N176   1.318       .  A
N169        N199   1.324       .  A
N169       Co202   2.069       .  S
N170        N188   1.318       .  A
N170        N206   1.325       .  A
N171        C200   1.351       .  A
N171        N181   1.323       .  A
H172        C197   1.082       .  S
N173        N194   1.324       .  A
N174        N192   1.321       .  A
N174        N179   1.321       .  A
C175        N179   1.348       .  A
C175        C203   1.469       .  S
C175       C2122   1.496       .  S
N176        C191   1.341       .  A
N176       Co198   2.090       .  S
C177        N205   1.346       .  A
C177        C180   1.469       .  S
C177        H211   1.082       .  S
C180        N201   1.351       .  A
C180       C2145   1.503       .  S
N181        N187   1.320       .  A
N182        C208   1.337       .  A
N182        N184   1.321       .  A
N182       Co198   2.085       .  S
N183        C197   1.336       .  A
N184        N212   1.324       .  A
N184       Co202   2.087       .  S
H185        C208   1.082       .  S
H186        C203   1.082       .  S
N188       Co202   2.061       .  S
N189        N201   1.325       .  A
N189        N205   1.321       .  A
N189       Co198   2.093       .  S
C190        N194   1.349       .  A
C190        C204   1.452       .  S
C190        C221   1.458       .  S
C191        C210   1.458       .  S
C191        H195   1.082       .  S
N192        C203   1.342       .  A
N192       Co202   2.090       .  S
C196        N212   1.352       .  A
C196        C208   1.464       .  S
C196       C2155   1.489       .  S
Co198      Cl209   2.426       .  S
N199        C210   1.346       .  A
C200       C2135   1.498       .  S
Co202      Cl209   2.464       .  S
C213        N231   1.348       .  A
C213        C250   1.454       .  S
C213        C316   1.459       .  S
N214        N231   1.324       .  A
N214        N236   1.318       .  A
N214       Co251   2.074       .  S
C215        N240   1.341       .  A
C215        C253   1.468       .  S
C215        H260   1.082       .  S
H216        C257   1.082       .  S
C217        N241   1.338       .  A
C217        C221   1.452       .  S
C217        H246   1.082       .  S
Co218       N236   2.077       .  S
Co218       N226   2.079       .  S
Co218       N258   2.083       .  S
Co218       N234   2.082       .  S
Co218      Cl262   2.443       .  S
N219        C257   1.339       .  A
N219        N226   1.318       .  A
N219       Co220   2.071       .  S
Co220       N223   2.087       .  S
Co220       N240   2.087       .  S
Co220       N227   2.096       .  S
Co220      Cl262   2.440       .  S
C221        N259   1.349       .  A
N222        N229   1.319       .  A
N222        N252   1.325       .  A
N222       Co255   2.076       .  S
N223        N241   1.318       .  A
N223        N259   1.324       .  A
N224        C253   1.349       .  A
N224        N234   1.322       .  A
H225        C250   1.082       .  S
N226        N247   1.324       .  A
N227        N245   1.323       .  A
N227        N232   1.323       .  A
C228        N232   1.350       .  A
C228        C256   1.472       .  S
C228       C2092   1.504       .  S
N229        C244   1.341       .  A
N229       Co251   2.085       .  S
C230        N258   1.340       .  A
C230        C233   1.466       .  S
C230        H264   1.081       .  S
C233        N254   1.354       .  A
C233       C2102   1.497       .  S
N234        N240   1.319       .  A
N235        C261   1.337       .  A
N235        N237   1.323       .  A
N235       Co251   2.090       .  S
N236        C250   1.339       .  A
N237        N265   1.324       .  A
N237       Co255   2.095       .  S
H238        C261   1.082       .  S
H239        C256   1.081       .  S
N241       Co255   2.063       .  S
N242        N254   1.326       .  A
N242        N258   1.319       .  A
N242       Co251   2.092       .  S
C243        N247   1.347       .  A
C243        C257   1.455       .  S
C244        C263   1.456       .  S
C244        H248   1.082       .  S
N245        C256   1.348       .  A
N245       Co255   2.106       .  S
C249        N265   1.353       .  A
C249        C261   1.464       .  S
C249       C2112   1.491       .  S
Co251      Cl262   2.442       .  S
N252        C263   1.347       .  A
C253       C2082   1.496       .  S
Co255      Cl262   2.459       .  S
C266        N284   1.347       .  A
C266        C303   1.453       .  S
N267        N284   1.323       .  A
N267        N289   1.317       .  A
N267       Co304   2.077       .  S
C268        N293   1.338       .  A
C268        C306   1.466       .  S
C268        H313   1.082       .  S
H269        C310   1.082       .  S
C270        N294   1.338       .  A
C270        C274   1.452       .  S
C270        H299   1.082       .  S
Co271       N289   2.063       .  S
Co271       N279   2.082       .  S
Co271       N311   2.115       .  S
Co271       N287   2.092       .  S
Co271      Cl315   2.477       .  S
N272        C310   1.345       .  A
N272        N279   1.319       .  A
N272       Co273   2.093       .  S
Co273       N276   2.093       .  S
Co273       N293   2.096       .  S
Co273       N280   2.095       .  S
Co273      Cl315   2.421       .  S
C274        N312   1.350       .  A
N275        N282   1.318       .  A
N275        N305   1.324       .  A
N275       Co308   2.072       .  S
N276        N294   1.319       .  A
N276        N312   1.326       .  A
N277        C306   1.354       .  A
N277        N287   1.328       .  A
H278        C303   1.082       .  S
N279        N300   1.325       .  A
N280        N298   1.322       .  A
N280        N285   1.322       .  A
C281        N285   1.349       .  A
C281        C309   1.471       .  S
C281       C2065   1.504       .  S
N282        C297   1.340       .  A
N282       Co304   2.078       .  S
C283        N311   1.349       .  A
C283        C286   1.476       .  S
C283        H317   1.081       .  S
C286        N307   1.353       .  A
C286       C2072   1.494       .  S
N287        N293   1.322       .  A
N288        C314   1.338       .  A
N288        N290   1.322       .  A
N288       Co304   2.087       .  S
N289        C303   1.339       .  A
N290        N318   1.330       .  A
N290       Co308   2.105       .  S
H291        C314   1.082       .  S
H292        C309   1.082       .  S
N294       Co308   2.067       .  S
N295        N307   1.324       .  A
N295        N311   1.322       .  A
N295       Co304   2.095       .  S
C296        N300   1.349       .  A
C296        C310   1.460       .  S
C297        C316   1.455       .  S
C297        H301   1.082       .  S
N298        C309   1.345       .  A
N298       Co308   2.096       .  S
C302        N318   1.356       .  A
C302        C314   1.461       .  S
C302       C2042   1.491       .  S
Co304      Cl315   2.419       .  S
N305        C316   1.348       .  A
C306       C2055   1.499       .  S
Co308      Cl315   2.476       .  S
C319        N337   1.346       .  A
C319        C356   1.455   1_556  S
C319        C584   1.455       .  S
N320        N337   1.323       .  A
N320        N342   1.319   1_556  A
N320       Co357   2.068       .  S
C321        N346   1.337       .  A
C321        C359   1.463       .  S
C321        H366   1.082       .  S
H322        C363   1.082       .  S
C323        N347   1.346       .  A
C323        C327   1.464       .  S
C323        H352   1.082       .  S
Co324       N342   2.081       .  S
Co324       N332   2.064       .  S
Co324       N364   2.079       .  S
Co324       N340   2.090       .  S
Co324      Cl368   2.434   1_554  S
N325        C363   1.340       .  A
N325        N332   1.317       .  A
N325       Co326   2.080       .  S
Co326       N329   2.064       .  S
Co326       N346   2.080       .  S
Co326       N333   2.075       .  S
Co326      Cl368   2.447   1_554  S
C327        N365   1.344   1_556  A
C327        C581   1.465       .  S
N328        N335   1.319       .  A
N328        N358   1.324       .  A
N328       Co361   2.087       .  S
N329        N347   1.319   1_554  A
N329        N365   1.322       .  A
N330        C359   1.353       .  A
N330        N340   1.324       .  A
H331        C356   1.082       .  S
N332        N353   1.322       .  A
N333        N351   1.316   1_554  A
N333        N338   1.322       .  A
C334        N338   1.352   1_556  A
C334        C362   1.469       .  S
C334       C2002   1.497       .  S
N335        C350   1.341       .  A
N335       Co357   2.072       .  S
C336        N364   1.331       .  A
C336        C339   1.473       .  S
C336        H370   1.074       .  S
C339        N360   1.360   1_554  A
C339       C2012   1.509       .  S
N340        N346   1.319       .  A
N341        C367   1.342       .  A
N341        N343   1.319       .  A
N341       Co357   2.085       .  S
N342        C356   1.338       .  A
N343        N371   1.321       .  A
N343       Co361   2.097       .  S
H344        C367   1.082       .  S
H345        C362   1.080       .  S
N347       Co361   2.104       .  S
N348        N360   1.326       .  A
N348        N364   1.316   1_556  A
N348       Co357   2.094       .  S
C349        N353   1.346       .  A
C349        C363   1.456       .  S
C349        C528   1.457       .  S
C350        C369   1.455       .  S
C350        H354   1.082       .  S
N351        C362   1.339       .  A
N351       Co361   2.084       .  S
C355        N371   1.350       .  A
C355        C367   1.470       .  S
C355       C2032   1.498       .  S
Co357      Cl368   2.466       .  S
N358        C369   1.349       .  A
C359       C2022   1.488       .  S
Co361      Cl368   2.426       .  S
C369        C422   1.462       .  S
C372        N390   1.348   1_455  A
C372        C409   1.455       .  S
C372        C539   1.461       .  S
N373        N390   1.324       .  A
N373        N395   1.319   1_655  A
N373       Co410   2.078       .  S
C374        N399   1.342       .  A
C374        C412   1.471       .  S
C374        H419   1.082       .  S
H375        C416   1.082       .  S
C376        N400   1.341       .  A
C376        C380   1.458   1_655  S
C376        H405   1.081       .  S
Co377       N395   2.081       .  S
Co377       N385   2.087       .  S
Co377       N417   2.083       .  S
Co377       N393   2.082       .  S
Co377      Cl421   2.420       .  S
N378        C416   1.337       .  A
N378        N385   1.317       .  A
N378       Co379   2.057       .  S
Co379       N382   2.069       .  S
Co379       N399   2.090       .  S
Co379       N386   2.081       .  S
Co379      Cl421   2.466       .  S
C380        N418   1.345       .  A
C380        C614   1.460       .  S
N381        N388   1.319       .  A
N381        N411   1.325       .  A
N381       Co414   2.090       .  S
N382        N400   1.319   1_455  A
N382        N418   1.323       .  A
N383        C412   1.348       .  A
N383        N393   1.322       .  A
H384        C409   1.082       .  S
N385        N406   1.324       .  A
N386        N404   1.320   1_455  A
N386        N391   1.324       .  A
C387        N391   1.352       .  A
C387        C415   1.465   1_455  S
C387       C1985   1.489       .  S
N388        C403   1.339       .  A
N388       Co410   2.068       .  S
C389        N417   1.337       .  A
C389        C392   1.464       .  S
C389        H423   1.082       .  S
C392        N413   1.352   1_455  A
C392       C1972   1.488       .  S
N393        N399   1.319       .  A
N394        C420   1.344       .  A
N394        N396   1.318       .  A
N394       Co410   2.096       .  S
N395        C409   1.340       .  A
N396        N424   1.319       .  A
N396       Co414   2.083       .  S
H397        C420   1.080       .  S
H398        C415   1.082       .  S
N400       Co414   2.086       .  S
N401        N413   1.324       .  A
N401        N417   1.320   1_655  A
N401       Co410   2.086       .  S
C402        N406   1.350       .  A
C402        C416   1.449       .  S
C402        C475   1.455       .  S
C403        C422   1.454       .  S
C403        H407   1.082       .  S
N404        C415   1.338       .  A
N404       Co414   2.089       .  S
C408        N424   1.350       .  A
C408        C420   1.479       .  S
C408       C1995   1.505       .  S
Co410      Cl421   2.468   1_655  S
N411        C422   1.350       .  A
C412       C1962   1.497       .  S
Co414      Cl421   2.420   1_655  S
C425        N443   1.345       .  A
C425        C462   1.456   1_556  S
C425        C561   1.455       .  S
N426        N443   1.322       .  A
N426        N448   1.319   1_556  A
N426       Co463   2.077       .  S
C427        N452   1.335       .  A
C427        C465   1.471       .  S
C427        H472   1.078       .  S
H428        C469   1.082       .  S
C429        N453   1.339       .  A
C429        C433   1.455   1_556  S
C429        H458   1.082       .  S
Co430       N448   2.072       .  S
Co430       N438   2.078       .  S
Co430       N470   2.078       .  S
Co430       N446   2.102       .  S
Co430      Cl474   2.446   1_554  S
N431        C469   1.341       .  A
N431        N438   1.317       .  A
N431       Co432   2.076       .  S
Co432       N435   2.057       .  S
Co432       N452   2.076       .  S
Co432       N439   2.085       .  S
Co432      Cl474   2.451   1_554  S
C433        N471   1.344       .  A
C433        C592   1.452       .  S
N434        N441   1.316       .  A
N434        N464   1.323       .  A
N434       Co467   2.082       .  S
N435        N453   1.318   1_554  A
N435        N471   1.322       .  A
N436        C465   1.358       .  A
N436        N446   1.325       .  A
H437        C462   1.082       .  S
N438        N459   1.324       .  A
N439        N457   1.320   1_554  A
N439        N444   1.324       .  A
C440        N444   1.352   1_556  A
C440        C468   1.464       .  S
C440       C1942   1.487       .  S
N441        C456   1.338       .  A
N441       Co463   2.059       .  S
C442        N470   1.341       .  A
C442        C445   1.457   1_554  S
C442        H476   1.082       .  S
C445        N466   1.349       .  A
C445       C1955   1.477       .  S
N446        N452   1.318       .  A
N447        C473   1.349       .  A
N447        N449   1.320       .  A
N447       Co463   2.107       .  S
N448        C462   1.340       .  A
N449        N477   1.325       .  A
N449       Co467   2.092       .  S
H450        C473   1.082       .  S
H451        C468   1.082       .  S
N453       Co467   2.081       .  S
N454        N466   1.320       .  A
N454        N470   1.324   1_556  A
N454       Co463   2.086       .  S
C455        N459   1.348       .  A
C455        C469   1.456       .  S
C455        C508   1.462       .  S
C456        C475   1.451       .  S
C456        H460   1.082       .  S
N457        C468   1.337       .  A
N457       Co467   2.082       .  S
C461        N477   1.352       .  A
C461        C473   1.474       .  S
C461       C1922   1.495       .  S
Co463      Cl474   2.445       .  S
N464        C475   1.350       .  A
C465       C1932   1.505       .  S
Co467      Cl474   2.430       .  S
C478        N496   1.346   1_455  A
C478        C515   1.457       .  S
C478        C634   1.459       .  S
N479        N496   1.323       .  A
N479        N501   1.319   1_655  A
N479       Co516   2.067       .  S
C480        N505   1.343       .  A
C480        C518   1.470       .  S
C480        H525   1.082       .  S
H481        C522   1.082       .  S
C482        N506   1.337       .  A
C482        C486   1.451   1_655  S
C482        H511   1.082       .  S
Co483       N501   2.086       .  S
Co483       N491   2.079       .  S
Co483       N523   2.083       .  S
Co483       N499   2.083       .  S
Co483      Cl527   2.440       .  S
N484        C522   1.341       .  A
N484        N491   1.318       .  A
N484       Co485   2.080       .  S
Co485       N488   2.088       .  S
Co485       N505   2.091       .  S
Co485       N492   2.082       .  S
Co485      Cl527   2.433       .  S
C486        N524   1.349       .  A
C486        C531   1.457       .  S
N487        N494   1.318       .  A
N487        N517   1.323       .  A
N487       Co520   2.067       .  S
N488        N506   1.318   1_455  A
N488        N524   1.325       .  A
N489        C518   1.352       .  A
N489        N499   1.322       .  A
H490        C515   1.082       .  S
N491        N512   1.325       .  A
N492        N510   1.320   1_455  A
N492        N497   1.321       .  A
C493        N497   1.348       .  A
C493        C521   1.465   1_455  S
C493       C1912   1.487       .  S
N494        C509   1.340       .  A
N494       Co516   2.081       .  S
C495        N523   1.338       .  A
C495        C498   1.465       .  S
C495        H529   1.082       .  S
C498        N519   1.352   1_455  A
C498       C1902   1.489       .  S
N499        N505   1.317       .  A
N500        C526   1.338       .  A
N500        N502   1.321       .  A
N500       Co516   2.087       .  S
N501        C515   1.340       .  A
N502        N530   1.323       .  A
N502       Co520   2.082       .  S
H503        C526   1.082       .  S
H504        C521   1.082       .  S
N506       Co520   2.061       .  S
N507        N519   1.324       .  A
N507        N523   1.319   1_655  A
N507       Co516   2.082       .  S
C508        N512   1.348       .  A
C508        C522   1.456       .  S
C509        C528   1.455       .  S
C509        H513   1.082       .  S
N510        C521   1.340       .  A
N510       Co520   2.083       .  S
C514        N530   1.351       .  A
C514        C526   1.465       .  S
C514       C1882   1.487       .  S
Co516      Cl527   2.439   1_655  S
N517        C528   1.346       .  A
C518       C1892   1.487       .  S
Co520      Cl527   2.452   1_655  S
C531        N549   1.348   1_455  A
C531        C568   1.452       .  S
N532        N549   1.323       .  A
N532        N554   1.317   1_655  A
N532       Co569   2.081       .  S
C533        N558   1.342       .  A
C533        C571   1.471       .  S
C533        H578   1.081       .  S
H534        C575   1.082       .  S
C535        N559   1.340       .  A
C535        C539   1.454   1_655  S
C535        H564   1.082       .  S
Co536       N554   2.062       .  S
Co536       N544   2.074       .  S
Co536       N576   2.082       .  S
Co536       N552   2.089       .  S
Co536      Cl580   2.452   1_554  S
N537        C575   1.339       .  A
N537        N544   1.319   1_556  A
N537       Co538   2.072       .  S
Co538       N541   2.075       .  S
Co538       N558   2.095       .  S
Co538       N545   2.089       .  S
Co538      Cl580   2.445       .  S
C539        N577   1.348       .  A
N540        N547   1.319   1_556  A
N540        N570   1.325       .  A
N540       Co573   2.073       .  S
N541        N559   1.319   1_455  A
N541        N577   1.325       .  A
N542        C571   1.351   1_554  A
N542        N552   1.324       .  A
H543        C568   1.082       .  S
N544        N565   1.323       .  A
N545        N563   1.323   1_455  A
N545        N550   1.323       .  A
C546        N550   1.351       .  A
C546        C574   1.466   1_455  S
C546       C1852   1.487   1_455  S
N547        C562   1.341       .  A
N547       Co569   2.091       .  S
C548        N576   1.341       .  A
C548        C551   1.466       .  S
C548        H582   1.082       .  S
C551        N572   1.348   1_455  A
C551       C1872   1.489   1_455  S
N552        N558   1.320   1_554  A
N553        C579   1.338       .  A
N553        N555   1.317   1_554  A
N553       Co569   2.079       .  S
N554        C568   1.339       .  A
N555        N583   1.330       .  A
N555       Co573   2.102       .  S
H556        C579   1.082       .  S
H557        C574   1.082       .  S
N559       Co573   2.081       .  S
N560        N572   1.320       .  A
N560        N576   1.320   1_655  A
N560       Co569   2.087       .  S
C561        N565   1.345   1_556  A
C561        C575   1.455       .  S
C562        C581   1.461   1_554  S
C562        H566   1.082       .  S
N563        C574   1.338       .  A
N563       Co573   2.091       .  S
C567        N583   1.359       .  A
C567        C579   1.462   1_556  S
C567       C1842   1.490   1_556  S
Co569      Cl580   2.429   1_654  S
N570        C581   1.347       .  A
C571       C1865   1.504       .  S
Co573      Cl580   2.450   1_655  S
C584        N602   1.344   1_556  A
C584        C621   1.457       .  S
N585        N602   1.321       .  A
N585        N607   1.319   1_554  A
N585       Co622   2.062       .  S
C586        N611   1.337       .  A
C586        C624   1.462       .  S
C586        H631   1.082       .  S
H587        C628   1.082       .  S
C588        N612   1.340       .  A
C588        C592   1.457       .  S
C588        H617   1.082       .  S
Co589       N607   2.085       .  S
Co589       N597   2.066       .  S
Co589       N629   2.087       .  S
Co589       N605   2.086       .  S
Co589      Cl633   2.444   1_656  S
N590        C628   1.341       .  A
N590        N597   1.318   1_455  A
N590       Co591   2.087       .  S
Co591       N594   2.058       .  S
Co591       N611   2.077       .  S
Co591       N598   2.080       .  S
Co591      Cl633   2.437   1_556  S
C592        N630   1.344   1_554  A
N593        N600   1.318   1_455  A
N593        N623   1.322       .  A
N593       Co626   2.061       .  S
N594        N612   1.318   1_556  A
N594        N630   1.321       .  A
N595        C624   1.352   1_655  A
N595        N605   1.323       .  A
H596        C621   1.082       .  S
N597        N618   1.323       .  A
N598        N616   1.318   1_556  A
N598        N603   1.322       .  A
C599        N603   1.352   1_554  A
C599        C627   1.467       .  S
C599       C1815   1.492       .  S
N600        C615   1.342       .  A
N600       Co622   2.089       .  S
C601        N629   1.339       .  A
C601        C604   1.467       .  S
C601        H635   1.082       .  S
C604        N625   1.350   1_556  A
C604       C1805   1.490       .  S
N605        N611   1.319   1_655  A
N606        C632   1.337       .  A
N606        N608   1.319   1_655  A
N606       Co622   2.079       .  S
N607        C621   1.341       .  A
N608        N636   1.323       .  A
N608       Co626   2.082       .  S
H609        C632   1.081       .  S
H610        C627   1.081       .  S
N612       Co626   2.083       .  S
N613        N625   1.323       .  A
N613        N629   1.319   1_554  A
N613       Co622   2.080       .  S
C614        N618   1.345   1_455  A
C614        C628   1.458       .  S
C615        C634   1.459   1_655  S
C615        H619   1.082       .  S
N616        C627   1.338       .  A
N616       Co626   2.082       .  S
C620        N636   1.352       .  A
C620        C632   1.464   1_455  S
C620       C1832   1.487       .  S
Co622      Cl633   2.437   1_655  S
N623        C634   1.344       .  A
C624       C1822   1.486       .  S
Co626      Cl633   2.444       .  S
C637        N655   1.343       .  A
C637        C674   1.459       .  S
C637        C740   1.455       .  S
N638        N655   1.321       .  A
N638        N660   1.318       .  A
N638       Co675   2.057       .  S
C639        N664   1.337       .  A
C639        C677   1.464   1_554  S
C639        H684   1.082       .  S
H640        C681   1.082       .  S
C641        N665   1.342       .  A
C641        C645   1.460       .  S
C641        H670   1.082       .  S
Co642       N660   2.088       .  S
Co642       N650   2.055       .  S
Co642       N682   2.081       .  S
Co642       N658   2.091       .  S
Co642      Cl686   2.441       .  S
N643        C681   1.344       .  A
N643        N650   1.318   1_554  A
N643       Co644   2.095       .  S
Co644       N647   2.059       .  S
Co644       N664   2.085       .  S
Co644       N651   2.100       .  S
Co644      Cl686   2.449   1_554  S
C645        N683   1.344       .  A
C645        C796   1.459       .  S
N646        N653   1.318   1_554  A
N646        N676   1.324       .  A
N646       Co679   2.069       .  S
N647        N665   1.319       .  A
N647        N683   1.322       .  A
N648        C677   1.352       .  A
N648        N658   1.324       .  A
H649        C674   1.082       .  S
N650        N671   1.322       .  A
N651        N669   1.320       .  A
N651        N656   1.329       .  A
C652        N656   1.356       .  A
C652        C680   1.469       .  S
C652       C1782   1.503       .  S
N653        C668   1.340       .  A
N653       Co675   2.083       .  S
C654        N682   1.338       .  A
C654        C657   1.460       .  S
C654        H688   1.082       .  S
C657        N678   1.354       .  A
C657       C1792   1.490       .  S
N658        N664   1.321   1_556  A
N659        C685   1.338       .  A
N659        N661   1.322   1_556  A
N659       Co675   2.083       .  S
N660        C674   1.341       .  A
N661        N689   1.323       .  A
N661       Co679   2.093       .  S
H662        C685   1.081       .  S
H663        C680   1.082       .  S
N665       Co679   2.095       .  S
N666        N678   1.329       .  A
N666        N682   1.321       .  A
N666       Co675   2.097       .  S
C667        N671   1.343       .  A
C667        C681   1.461   1_556  S
C667        C849   1.460       .  S
C668        C687   1.455       .  S
C668        H672   1.082       .  S
N669        C680   1.341       .  A
N669       Co679   2.096       .  S
C673        N689   1.352   1_556  A
C673        C685   1.463       .  S
C673       C1772   1.489       .  S
Co675      Cl686   2.449       .  S
N676        C687   1.347   1_554  A
C677       C1762   1.487       .  S
Co679      Cl686   2.441   1_554  S
C687        C952   1.459   1_556  S
C690        N708   1.349       .  A
C690        C727   1.454   1_565  S
C690        C910   1.461       .  S
N691        N708   1.324       .  A
N691        N713   1.318   1_565  A
N691       Co728   2.085       .  S
C692        N717   1.338       .  A
C692        C730   1.464       .  S
C692        H737   1.082       .  S
H693        C734   1.081       .  S
C694        N718   1.340       .  A
C694        C698   1.455       .  S
C694        H723   1.082       .  S
Co695       N713   2.069       .  S
Co695       N703   2.056       .  S
Co695       N735   2.083       .  S
Co695       N711   2.090       .  S
Co695      Cl739   2.460   1_545  S
N696        C734   1.339       .  A
N696        N703   1.319       .  A
N696       Co697   2.087       .  S
Co697       N700   2.075       .  S
Co697       N717   2.088       .  S
Co697       N704   2.097       .  S
Co697      Cl739   2.441   1_545  S
C698        N736   1.348   1_565  A
C698        C879   1.462       .  S
N699        N706   1.318       .  A
N699        N729   1.321       .  A
N699       Co732   2.058       .  S
N700        N718   1.318   1_545  A
N700        N736   1.325       .  A
N701        C730   1.352       .  A
N701        N711   1.325       .  A
H702        C727   1.082       .  S
N703        N724   1.322       .  A
N704        N722   1.316   1_545  A
N704        N709   1.327       .  A
C705        N709   1.360   1_565  A
C705        C733   1.473       .  S
C705       C1735   1.508       .  S
N706        C721   1.341       .  A
N706       Co728   2.088       .  S
C707        N735   1.341       .  A
C707        C710   1.466   1_545  S
C707        H741   1.082       .  S
C710        N731   1.348       .  A
C710       C1722   1.491       .  S
N711        N717   1.322       .  A
N712        C738   1.339       .  A
N712        N714   1.318       .  A
N712       Co728   2.080       .  S
N713        C727   1.341       .  A
N714        N742   1.325       .  A
N714       Co732   2.089       .  S
H715        C738   1.081       .  S
H716        C733   1.074       .  S
N718       Co732   2.080       .  S
N719        N731   1.321       .  A
N719        N735   1.320   1_565  A
N719       Co728   2.088       .  S
C720        N724   1.342       .  A
C720        C734   1.457       .  S
C720        C743   1.452       .  S
C721        C740   1.459       .  S
C721        H725   1.082       .  S
N722        C733   1.330       .  A
N722       Co732   2.075       .  S
C726        N742   1.354       .  A
C726        C738   1.464       .  S
C726       C1752   1.493       .  S
Co728      Cl739   2.427       .  S
N729        C740   1.343       .  A
C730       C1742   1.490       .  S
Co732      Cl739   2.444       .  S
C743        N761   1.341       .  A
C743        C780   1.460       .  S
N744        N761   1.319       .  A
N744        N766   1.314       .  A
N744       Co781   2.040       .  S
C745        N770   1.348       .  A
C745        C783   1.468       .  S
C745        H790   1.082       .  S
H746        C787   1.082       .  S
C747        N771   1.342       .  A
C747        C751   1.457       .  S
C747        H776   1.082       .  S
Co748       N766   2.082       .  S
Co748       N756   2.073       .  S
Co748       N788   2.080       .  S
Co748       N764   2.077       .  S
Co748      Cl792   2.426   1_556  S
N749        C787   1.341       .  A
N749        N756   1.319   1_554  A
N749       Co750   2.074       .  S
Co750       N753   2.079       .  S
Co750       N770   2.097       .  S
Co750       N757   2.121       .  S
Co750      Cl792   2.453       .  S
C751        N789   1.348       .  A
C751        C804   1.464       .  S
N752        N759   1.318   1_554  A
N752        N782   1.322       .  A
N752       Co785   2.070       .  S
N753        N771   1.318       .  A
N753        N789   1.325       .  A
N754        C783   1.344   1_556  A
N754        N764   1.320       .  A
H755        C780   1.082       .  S
N756        N777   1.321       .  A
N757        N775   1.324       .  A
N757        N762   1.328       .  A
C758        N762   1.359       .  A
C758        C786   1.466       .  S
C758       C1712   1.495       .  S
N759        C774   1.335       .  A
N759       Co781   2.060       .  S
C760        N788   1.337       .  A
C760        C763   1.465       .  S
C760        H794   1.082       .  S
C763        N784   1.353       .  A
C763       C1702   1.488       .  S
N764        N770   1.322   1_556  A
N765        C791   1.332       .  A
N765        N767   1.318   1_556  A
N765       Co781   2.047       .  S
N766        C780   1.342       .  A
N767        N795   1.324       .  A
N767       Co785   2.112       .  S
H768        C791   1.077       .  S
H769        C786   1.082       .  S
N771       Co785   2.082       .  S
N772        N784   1.324       .  A
N772        N788   1.318       .  A
N772       Co781   2.084       .  S
C773        N777   1.345   1_554  A
C773        C787   1.456       .  S
C773        C932   1.455       .  S
C774        C793   1.451   1_556  S
C774        H778   1.082       .  S
N775        C786   1.342       .  A
N775       Co785   2.095       .  S
C779        N795   1.359   1_556  A
C779        C791   1.460       .  S
C779       C1692   1.511       .  S
Co781      Cl792   2.449   1_556  S
N782        C793   1.345       .  A
C783       C1682   1.487   1_554  S
Co785      Cl792   2.438       .  S
C793        C857   1.447       .  S
C796        N814   1.343       .  A
C796        C833   1.460       .  S
N797        N814   1.322       .  A
N797        N819   1.318       .  A
N797       Co834   2.060       .  S
C798        N823   1.339       .  A
C798        C836   1.465   1_545  S
C798        H843   1.082       .  S
H799        C840   1.082       .  S
C800        N824   1.342       .  A
C800        C804   1.458       .  S
C800        H829   1.082       .  S
Co801       N819   2.089       .  S
Co801       N809   2.060       .  S
Co801       N841   2.087       .  S
Co801       N817   2.095       .  S
Co801      Cl845   2.440       .  S
N802        C840   1.340       .  A
N802        N809   1.319   1_545  A
N802       Co803   2.085       .  S
Co803       N806   2.068       .  S
Co803       N823   2.090       .  S
Co803       N810   2.095       .  S
Co803      Cl845   2.455   1_545  S
C804        N842   1.347       .  A
N805        N812   1.318   1_545  A
N805        N835   1.322       .  A
N805       Co838   2.078       .  S
N806        N824   1.317       .  A
N806        N842   1.324       .  A
N807        C836   1.353       .  A
N807        N817   1.326       .  A
H808        C833   1.082       .  S
N809        N830   1.322       .  A
N810        N828   1.318       .  A
N810        N815   1.326       .  A
C811        N815   1.357       .  A
C811        C839   1.467       .  S
C811       C1642   1.502       .  S
N812        C827   1.338       .  A
N812       Co834   2.062       .  S
C813        N841   1.340       .  A
C813        C816   1.464       .  S
C813        H847   1.081       .  S
C816        N837   1.354       .  A
C816       C1655   1.496       .  S
N817        N823   1.322   1_565  A
N818        C844   1.346       .  A
N818        N820   1.323   1_565  A
N818       Co834   2.092       .  S
N819        C833   1.342       .  A
N820        N848   1.321       .  A
N820       Co838   2.080       .  S
H821        C844   1.081       .  S
H822        C839   1.080       .  S
N824       Co838   2.087       .  S
N825        N837   1.325       .  A
N825        N841   1.323       .  A
N825       Co834   2.098       .  S
C826        N830   1.344       .  A
C826        C840   1.457   1_565  S
C826        C899   1.454       .  S
C827        C846   1.451       .  S
C827        H831   1.082       .  S
N828        C839   1.339       .  A
N828       Co838   2.085       .  S
C832        N848   1.346   1_565  A
C832        C844   1.465       .  S
C832       C1675   1.485       .  S
Co834      Cl845   2.460       .  S
N835        C846   1.347   1_545  A
C836       C1665   1.494       .  S
Co838      Cl845   2.427   1_545  S
C846        C902   1.452       .  S
C849        N867   1.345   1_556  A
C849        C886   1.459       .  S
N850        N867   1.324       .  A
N850        N872   1.320   1_554  A
N850       Co887   2.066       .  S
C851        N876   1.331       .  A
C851        C889   1.473   1_545  S
C851        H896   1.073       .  S
H852        C893   1.082       .  S
C853        N877   1.339       .  A
C853        C857   1.453       .  S
C853        H882   1.082       .  S
Co854       N872   2.093       .  S
Co854       N862   2.069       .  S
Co854       N894   2.085       .  S
Co854       N870   2.096       .  S
Co854      Cl898   2.452       .  S
N855        C893   1.342       .  A
N855        N862   1.318   1_545  A
N855       Co856   2.088       .  S
Co856       N859   2.060       .  S
Co856       N876   2.076       .  S
Co856       N863   2.092       .  S
Co856      Cl898   2.428   1_545  S
C857        N895   1.343   1_554  A
N858        N865   1.317   1_545  A
N858        N888   1.321       .  A
N858       Co891   2.056       .  S
N859        N877   1.318   1_556  A
N859        N895   1.320       .  A
N860        C889   1.360       .  A
N860        N870   1.326       .  A
H861        C886   1.082       .  S
N862        N883   1.323       .  A
N863        N881   1.315   1_556  A
N863        N868   1.320       .  A
C864        N868   1.357   1_554  A
C864        C892   1.477       .  S
C864       C1612   1.513   1_554  S
N865        C880   1.341       .  A
N865       Co887   2.083       .  S
C866        N894   1.339       .  A
C866        C869   1.466       .  S
C866        H900   1.081       .  S
C869        N890   1.350   1_556  A
C869       C1602   1.488       .  S
N870        N876   1.316   1_565  A
N871        C897   1.338       .  A
N871        N873   1.320       .  A
N871       Co887   2.086       .  S
N872        C886   1.341       .  A
N873        N901   1.322   1_565  A
N873       Co891   2.081   1_565  S
H874        C897   1.082       .  S
H875        C892   1.074       .  S
N877       Co891   2.070       .  S
N878        N890   1.322       .  A
N878        N894   1.320   1_554  A
N878       Co887   2.079       .  S
C879        N883   1.347       .  A
C879        C893   1.458   1_565  S
C880        C899   1.458       .  S
C880        H884   1.082       .  S
N881        C892   1.340       .  A
N881       Co891   2.075       .  S
C885        N901   1.351   1_565  A
C885        C897   1.465       .  S
C885       C1632   1.487       .  S
Co887      Cl898   2.434   1_554  S
N888        C899   1.343   1_545  A
C889       C1622   1.509       .  S
Co891      Cl898   2.455   1_544  S
C902        N920   1.348       .  A
C902        C939   1.450   1_565  S
N903        N920   1.324       .  A
N903        N925   1.318   1_565  A
N903       Co940   2.082       .  S
C904        N929   1.340       .  A
C904        C942   1.464   1_556  S
C904        H949   1.082       .  S
H905        C946   1.082       .  S
C906        N930   1.338       .  A
C906        C910   1.452       .  S
C906        H935   1.082       .  S
Co907       N925   2.059       .  S
Co907       N915   2.080       .  S
Co907       N947   2.093       .  S
Co907       N923   2.090       .  S
Co907      Cl951   2.455   1_545  S
N908        C946   1.337       .  A
N908        N915   1.319   1_556  A
N908       Co909   2.068       .  S
Co909       N912   2.090       .  S
Co909       N929   2.089       .  S
Co909       N916   2.092       .  S
Co909      Cl951   2.432   1_546  S
C910        N948   1.350   1_565  A
N911        N918   1.318   1_556  A
N911        N941   1.323       .  A
N911       Co944   2.069       .  S
N912        N930   1.318   1_545  A
N912        N948   1.326       .  A
N913        C942   1.352       .  A
N913        N923   1.325       .  A
H914        C939   1.082       .  S
N915        N936   1.324       .  A
N916        N934   1.322   1_545  A
N916        N921   1.322       .  A
C917        N921   1.350   1_565  A
C917        C945   1.464       .  S
C917       C1585   1.490       .  S
N918        C933   1.340       .  A
N918       Co940   2.081       .  S
C919        N947   1.343       .  A
C919        C922   1.468   1_545  S
C919        H953   1.082       .  S
C922        N943   1.347       .  A
C922       C1595   1.492       .  S
N923        N929   1.322   1_554  A
N924        C950   1.338       .  A
N924        N926   1.319   1_554  A
N924       Co940   2.084       .  S
N925        C939   1.336       .  A
N926        N954   1.325       .  A
N926       Co944   2.088       .  S
H927        C950   1.082       .  S
H928        C945   1.082       .  S
N930       Co944   2.064       .  S
N931        N943   1.322       .  A
N931        N947   1.321   1_565  A
N931       Co940   2.080       .  S
C932        N936   1.347       .  A
C932        C946   1.453   1_554  S
C933        C952   1.456       .  S
C933        H937   1.082       .  S
N934        C945   1.340       .  A
N934       Co944   2.084       .  S
C938        N954   1.353   1_554  A
C938        C950   1.465       .  S
C938       C1572   1.491       .  S
Co940      Cl951   2.426       .  S
N941        C952   1.347   1_556  A
C942       C1562   1.497       .  S
Co944      Cl951   2.461   1_556  S
C955        N973   1.345   1_455  A
C955        C992   1.458       .  S
C955       C1220   1.459       .  S
N956        N973   1.323       .  A
N956        N978   1.319   1_655  A
N956       Co993   2.067       .  S
C957        N982   1.340       .  A
C957        C995   1.465       .  S
C957       H1002   1.082       .  S
H958        C999   1.082       .  S
C959        N983   1.341       .  A
C959        C963   1.457   1_655  S
C959        H988   1.082       .  S
Co960       N978   2.087       .  S
Co960       N968   2.092       .  S
Co960      N1000   2.087       .  S
Co960       N976   2.089       .  S
Co960     Cl1004   2.418       .  S
N961        C999   1.338       .  A
N961        N968   1.318       .  A
N961       Co962   2.061       .  S
Co962       N965   2.064       .  S
Co962       N982   2.078       .  S
Co962       N969   2.079       .  S
Co962     Cl1004   2.464       .  S
C963       N1001   1.345       .  A
C963       C1167   1.457       .  S
N964        N971   1.318       .  A
N964        N994   1.325       .  A
N964       Co997   2.088       .  S
N965        N983   1.318   1_455  A
N965       N1001   1.322       .  A
N966        C995   1.350       .  A
N966        N976   1.322       .  A
H967        C992   1.082       .  S
N968        N989   1.325       .  A
N969        N987   1.318   1_455  A
N969        N974   1.323       .  A
C970        N974   1.352       .  A
C970        C998   1.464   1_455  S
C970       C1532   1.486       .  S
N971        C986   1.337       .  A
N971       Co993   2.060       .  S
C972       N1000   1.338       .  A
C972        C975   1.464       .  S
C972       H1006   1.082       .  S
C975        N996   1.352   1_455  A
C975       C1545   1.488       .  S
N976        N982   1.319       .  A
N977       C1003   1.344       .  A
N977        N979   1.318       .  A
N977       Co993   2.087       .  S
N978        C992   1.340       .  A
N979       N1007   1.319       .  A
N979       Co997   2.083       .  S
H980       C1003   1.081       .  S
H981        C998   1.082       .  S
N983       Co997   2.085       .  S
N984        N996   1.323       .  A
N984       N1000   1.320   1_655  A
N984       Co993   2.081       .  S
C985        N989   1.350       .  A
C985        C999   1.451       .  S
C985       C1061   1.459       .  S
C986       C1005   1.451       .  S
C986        H990   1.082       .  S
N987        C998   1.337       .  A
N987       Co997   2.081       .  S
C991       N1007   1.347       .  A
C991       C1003   1.473       .  S
C991       C1552   1.500       .  S
Co993     Cl1004   2.467   1_655  S
N994       C1005   1.349       .  A
C995       C1522   1.491       .  S
Co997     Cl1004   2.415   1_655  S
C1005      C1058   1.457       .  S
C1008      N1026   1.344       .  A
C1008      C1045   1.457   1_565  S
C1008      C1217   1.457       .  S
N1009      N1026   1.322       .  A
N1009      N1031   1.319   1_565  A
N1009     Co1046   2.064       .  S
C1010      N1035   1.335       .  A
C1010      C1048   1.474       .  S
C1010      H1055   1.076       .  S
H1011      C1052   1.082       .  S
C1012      N1036   1.338       .  A
C1012      C1016   1.453       .  S
C1012      H1041   1.082       .  S
Co1013     N1031   2.086       .  S
Co1013     N1021   2.082       .  S
Co1013     N1053   2.082       .  S
Co1013     N1029   2.085       .  S
Co1013    Cl1057   2.437   1_545  S
N1014      C1052   1.340       .  A
N1014      N1021   1.318       .  A
N1014     Co1015   2.075       .  S
Co1015     N1018   2.081       .  S
Co1015     N1035   2.071       .  S
Co1015     N1022   2.083       .  S
Co1015    Cl1057   2.435   1_545  S
C1016      N1054   1.347   1_565  A
C1016      C1250   1.455       .  S
N1017      N1024   1.318       .  A
N1017      N1047   1.323       .  A
N1017     Co1050   2.084       .  S
N1018      N1036   1.318   1_545  A
N1018      N1054   1.323       .  A
N1019      C1048   1.356       .  A
N1019      N1029   1.323       .  A
H1020      C1045   1.082       .  S
N1021      N1042   1.324       .  A
N1022      N1040   1.319   1_545  A
N1022      N1027   1.321       .  A
C1023      N1027   1.348   1_565  A
C1023      C1051   1.467       .  S
C1023      C1502   1.492       .  S
N1024      C1039   1.339       .  A
N1024     Co1046   2.064       .  S
C1025      N1053   1.336       .  A
C1025      C1028   1.465   1_545  S
C1025      H1059   1.080       .  S
C1028      N1049   1.353       .  A
C1028      C1492   1.492       .  S
N1029      N1035   1.314       .  A
N1030      C1056   1.340       .  A
N1030      N1032   1.321       .  A
N1030     Co1046   2.085       .  S
N1031      C1045   1.341       .  A
N1032      N1060   1.322       .  A
N1032     Co1050   2.092       .  S
H1033      C1056   1.082       .  S
H1034      C1051   1.082       .  S
N1036     Co1050   2.065       .  S
N1037      N1049   1.323       .  A
N1037      N1053   1.318   1_565  A
N1037     Co1046   2.084       .  S
C1038      N1042   1.349       .  A
C1038      C1052   1.455       .  S
C1038      C1114   1.461       .  S
C1039      C1058   1.453       .  S
C1039      H1043   1.082       .  S
N1040      C1051   1.342       .  A
N1040     Co1050   2.084       .  S
C1044      N1060   1.350       .  A
C1044      C1056   1.465       .  S
C1044      C1512   1.494       .  S
Co1046    Cl1057   2.453       .  S
N1047      C1058   1.348       .  A
C1048      C1482   1.503       .  S
Co1050    Cl1057   2.441       .  S
C1061      N1079   1.351       .  A
C1061      C1098   1.451       .  S
N1062      N1079   1.325       .  A
N1062      N1084   1.318       .  A
N1062     Co1099   2.091       .  S
C1063      N1088   1.337       .  A
C1063      C1101   1.464   1_545  S
C1063      H1108   1.082       .  S
H1064      C1105   1.082       .  S
C1065      N1089   1.339       .  A
C1065      C1069   1.453       .  S
C1065      H1094   1.082       .  S
Co1066     N1084   2.061       .  S
Co1066     N1074   2.066       .  S
Co1066     N1106   2.091       .  S
Co1066     N1082   2.084       .  S
Co1066    Cl1110   2.466       .  S
N1067      C1105   1.340       .  A
N1067      N1074   1.319   1_545  A
N1067     Co1068   2.079       .  S
Co1068     N1071   2.093       .  S
Co1068     N1088   2.085       .  S
Co1068     N1075   2.079       .  S
Co1068    Cl1110   2.421   1_545  S
C1069      N1107   1.351       .  A
C1069      C1122   1.464       .  S
N1070      N1077   1.319   1_545  A
N1070      N1100   1.325       .  A
N1070     Co1103   2.073       .  S
N1071      N1089   1.318       .  A
N1071      N1107   1.326       .  A
N1072      C1101   1.353       .  A
N1072      N1082   1.324       .  A
H1073      C1098   1.082       .  S
N1074      N1095   1.322       .  A
N1075      N1093   1.318       .  A
N1075      N1080   1.320       .  A
C1076      N1080   1.348       .  A
C1076      C1104   1.479       .  S
C1076      C1452   1.505       .  S
N1077      C1092   1.340       .  A
N1077     Co1099   2.088       .  S
C1078      N1106   1.344       .  A
C1078      C1081   1.468       .  S
C1078      H1112   1.082       .  S
C1081      N1102   1.350       .  A
C1081      C1462   1.498       .  S
N1082      N1088   1.320   1_565  A
N1083      C1109   1.337       .  A
N1083      N1085   1.321   1_565  A
N1083     Co1099   2.086       .  S
N1084      C1098   1.338       .  A
N1085      N1113   1.325       .  A
N1085     Co1103   2.087       .  S
H1086      C1109   1.082       .  S
H1087      C1104   1.080       .  S
N1089     Co1103   2.068       .  S
N1090      N1102   1.323       .  A
N1090      N1106   1.320       .  A
N1090     Co1099   2.091       .  S
C1091      N1095   1.345       .  A
C1091      C1105   1.456   1_565  S
C1091      C1270   1.455       .  S
C1092      C1111   1.457       .  S
C1092      H1096   1.082       .  S
N1093      C1104   1.344       .  A
N1093     Co1103   2.097       .  S
C1097      N1113   1.353   1_565  A
C1097      C1109   1.463       .  S
C1097      C1475   1.488       .  S
Co1099    Cl1110   2.419       .  S
N1100      C1111   1.347   1_545  A
C1101      C1442   1.489       .  S
Co1103    Cl1110   2.470   1_545  S
C1111      C1197   1.462       .  S
C1114      N1132   1.349       .  A
C1114      C1151   1.455       .  S
N1115      N1132   1.325       .  A
N1115      N1137   1.319       .  A
N1115     Co1152   2.086       .  S
C1116      N1141   1.341       .  A
C1116      C1154   1.470       .  S
C1116      H1161   1.081       .  S
H1117      C1158   1.082       .  S
C1118      N1142   1.342       .  A
C1118      C1122   1.456       .  S
C1118      H1147   1.082       .  S
Co1119     N1137   2.073       .  S
Co1119     N1127   2.093       .  S
Co1119     N1159   2.089       .  S
Co1119     N1135   2.084       .  S
Co1119    Cl1163   2.439   1_655  S
N1120      C1158   1.341       .  A
N1120      N1127   1.319   1_455  A
N1120     Co1121   2.073       .  S
Co1121     N1124   2.080       .  S
Co1121     N1141   2.087       .  S
Co1121     N1128   2.094       .  S
Co1121    Cl1163   2.456       .  S
C1122      N1160   1.349       .  A
N1123      N1130   1.319   1_455  A
N1123      N1153   1.324       .  A
N1123     Co1156   2.071       .  S
N1124      N1142   1.319       .  A
N1124      N1160   1.324       .  A
N1125      C1154   1.347   1_655  A
N1125      N1135   1.319       .  A
H1126      C1151   1.082       .  S
N1127      N1148   1.325       .  A
N1128      N1146   1.320       .  A
N1128      N1133   1.324       .  A
C1129      N1133   1.354       .  A
C1129      C1157   1.470       .  S
C1129      C1425   1.490       .  S
N1130      C1145   1.343       .  A
N1130     Co1152   2.096       .  S
C1131      N1159   1.342       .  A
C1131      C1134   1.468       .  S
C1131      H1165   1.082       .  S
C1134      N1155   1.355       .  A
C1134      C1415   1.497       .  S
N1135      N1141   1.319   1_655  A
N1136      C1162   1.337       .  A
N1136      N1138   1.319   1_655  A
N1136     Co1152   2.079       .  S
N1137      C1151   1.340       .  A
N1138      N1166   1.324       .  A
N1138     Co1156   2.086       .  S
H1139      C1162   1.082       .  S
H1140      C1157   1.082       .  S
N1142     Co1156   2.083       .  S
N1143      N1155   1.326       .  A
N1143      N1159   1.318       .  A
N1143     Co1152   2.096       .  S
C1144      N1148   1.349   1_455  A
C1144      C1158   1.456       .  S
C1144      C1175   1.465       .  S
C1145      C1164   1.460   1_655  S
C1145      H1149   1.082       .  S
N1146      C1157   1.342       .  A
N1146     Co1156   2.098       .  S
C1150      N1166   1.353       .  A
C1150      C1162   1.463   1_455  S
C1150      C1405   1.487       .  S
Co1152    Cl1163   2.437   1_655  S
N1153      C1164   1.346       .  A
C1154      C1435   1.496   1_455  S
Co1156    Cl1163   2.447       .  S
C1164      C1228   1.466       .  S
C1167      N1185   1.345   1_455  A
C1167      C1204   1.457       .  S
N1168      N1185   1.323       .  A
N1168      N1190   1.318   1_655  A
N1168     Co1205   2.064       .  S
C1169      N1194   1.339       .  A
C1169      C1207   1.466   1_545  S
C1169      H1214   1.082       .  S
H1170      C1211   1.082       .  S
C1171      N1195   1.341       .  A
C1171      C1175   1.455   1_655  S
C1171      H1200   1.081       .  S
Co1172     N1190   2.082       .  S
Co1172     N1180   2.067       .  S
Co1172     N1212   2.082       .  S
Co1172     N1188   2.081       .  S
Co1172    Cl1216   2.447       .  S
N1173      C1211   1.343       .  A
N1173      N1180   1.319   1_545  A
N1173     Co1174   2.091       .  S
Co1174     N1177   2.089       .  S
Co1174     N1194   2.082       .  S
Co1174     N1181   2.087       .  S
Co1174    Cl1216   2.428   1_545  S
C1175      N1213   1.350       .  A
N1176      N1183   1.319   1_545  A
N1176      N1206   1.324       .  A
N1176     Co1209   2.071       .  S
N1177      N1195   1.318   1_455  A
N1177      N1213   1.326       .  A
N1178      C1207   1.353       .  A
N1178      N1188   1.324       .  A
H1179      C1204   1.082       .  S
N1180      N1201   1.323       .  A
N1181      N1199   1.320   1_455  A
N1181      N1186   1.320       .  A
C1182      N1186   1.347   1_655  A
C1182      C1210   1.468       .  S
C1182      C1392   1.493   1_655  S
N1183      C1198   1.339       .  A
N1183     Co1205   2.078       .  S
C1184      N1212   1.337       .  A
C1184      C1187   1.462       .  S
C1184      H1218   1.082       .  S
C1187      N1208   1.353   1_455  A
C1187      C1372   1.488       .  S
N1188      N1194   1.317   1_565  A
N1189      C1215   1.340       .  A
N1189      N1191   1.321   1_565  A
N1189     Co1205   2.091       .  S
N1190      C1204   1.340       .  A
N1191      N1219   1.328       .  A
N1191     Co1209   2.109       .  S
H1192      C1215   1.082       .  S
H1193      C1210   1.081       .  S
N1195     Co1209   2.073       .  S
N1196      N1208   1.324       .  A
N1196      N1212   1.321   1_655  A
N1196     Co1205   2.093       .  S
C1197      N1201   1.346       .  A
C1197      C1211   1.460   1_565  S
C1198      C1217   1.456       .  S
C1198      H1202   1.082       .  S
N1199      C1210   1.342       .  A
N1199     Co1209   2.084       .  S
C1203      N1219   1.358   1_565  A
C1203      C1215   1.465       .  S
C1203      C1382   1.490       .  S
Co1205    Cl1216   2.443   1_655  S
N1206      C1217   1.346   1_545  A
C1207      C1362   1.493       .  S
Co1209    Cl1216   2.456   1_645  S
C1220      N1238   1.344       .  A
C1220      C1257   1.460   1_455  S
N1221      N1238   1.322       .  A
N1221      N1243   1.318   1_455  A
N1221     Co1258   2.060       .  S
C1222      N1247   1.342       .  A
C1222      C1260   1.468   1_545  S
C1222      H1267   1.082       .  S
H1223      C1264   1.082       .  S
C1224      N1248   1.343       .  A
C1224      C1228   1.460       .  S
C1224      H1253   1.082       .  S
Co1225     N1243   2.092       .  S
Co1225     N1233   2.082       .  S
Co1225     N1265   2.079       .  S
Co1225     N1241   2.083       .  S
Co1225    Cl1269   2.422   1_655  S
N1226      C1264   1.338       .  A
N1226      N1233   1.318   1_545  A
N1226     Co1227   2.063       .  S
Co1227     N1230   2.069       .  S
Co1227     N1247   2.082       .  S
Co1227     N1234   2.080       .  S
Co1227    Cl1269   2.458   1_645  S
C1228      N1266   1.346   1_455  A
N1229      N1236   1.319   1_545  A
N1229      N1259   1.322       .  A
N1229     Co1262   2.063       .  S
N1230      N1248   1.319   1_655  A
N1230      N1266   1.324       .  A
N1231      C1260   1.348       .  A
N1231      N1241   1.321       .  A
H1232      C1257   1.082       .  S
N1233      N1254   1.323       .  A
N1234      N1252   1.321   1_655  A
N1234      N1239   1.322       .  A
C1235      N1239   1.350   1_455  A
C1235      C1263   1.466       .  S
C1235      C1335   1.485       .  S
N1236      C1251   1.340       .  A
N1236     Co1258   2.085       .  S
C1237      N1265   1.337       .  A
C1237      C1240   1.465   1_655  S
C1237      H1271   1.081       .  S
C1240      N1261   1.355       .  A
C1240      C1355   1.496       .  S
N1241      N1247   1.318   1_565  A
N1242      C1268   1.337       .  A
N1242      N1244   1.320   1_565  A
N1242     Co1258   2.078       .  S
N1243      C1257   1.342       .  A
N1244      N1272   1.325       .  A
N1244     Co1262   2.096       .  S
H1245      C1268   1.082       .  S
H1246      C1263   1.082       .  S
N1248     Co1262   2.095       .  S
N1249      N1261   1.324       .  A
N1249      N1265   1.316   1_455  A
N1249     Co1258   2.084       .  S
C1250      N1254   1.347       .  A
C1250      C1264   1.453   1_565  S
C1251      C1270   1.456       .  S
C1251      H1255   1.082       .  S
N1252      C1263   1.338       .  A
N1252     Co1262   2.088       .  S
C1256      N1272   1.354   1_565  A
C1256      C1268   1.462       .  S
C1256      C1342   1.490       .  S
Co1258    Cl1269   2.448       .  S
N1259      C1270   1.345   1_545  A
C1260      C1322   1.494       .  S
Co1262    Cl1269   2.438   1_545  S
C1273      C1274   1.392       .  D
C1273      C1875   1.527   1_455  S
C1273      C1915   1.527       .  S
C1274      C1395   1.527       .  S
C1274      C1432   1.527   1_455  S
C1275      C1276   1.395       .  D
C1275      C1592   1.507       .  S
C1275      C1672   1.552   1_565  S
C1276      C1385   1.553       .  S
C1276      C1495   1.496       .  S
C1277      C1278   1.389       .  D
C1277      C1835   1.522       .  S
C1277      C1905   1.529       .  S
C1278      C1375   1.529       .  S
C1278      C1535   1.522       .  S
C1279      C1280   1.392       .  D
C1279      C1635   1.525       .  S
C1279      C1662   1.531       .  S
C1280      C1365   1.530       .  S
C1280      C1472   1.525       .  S
C1281      C1282   1.406       .  D
C1281      C2075   1.550       .  S
C1281      C2262   1.529       .  S
C1282      C1422   1.546       .  S
C1282      C1455   1.509       .  S
C1283      C1284   1.397       .  D
C1283      C2142   1.518       .  S
C1283      C2275   1.550       .  S
C1284      C1412   1.548       .  S
C1284      C1485   1.487       .  S
C1285      C1286   1.398       .  D
C1285      C2062   1.537       .  S
C1285      C2185   1.528       .  S
C1286      C1465   1.537       .  S
C1286      C1525   1.527       .  S
C1287      C1288   1.398       .  D
C1287      C1625   1.529       .  S
C1287      C1732   1.529       .  S
C1288      C1345   1.534       .  S
C1288      C1445   1.532       .  S
C1289      C1290   1.399       .  D
C1289      C1862   1.528       .  S
C1289      C1952   1.568       .  S
C1290      C1615   1.541       .  S
C1290      C1695   1.498       .  S
C1291      C1292   1.389       .  D
C1291      C1812   1.525   1_556  S
C1291      C1945   1.526       .  S
C1292      C1605   1.527       .  S
C1292      C1765   1.524       .  S
C1293      C1294   1.406       .  D
C1293      C2195   1.504       .  S
C1293      C2235   1.547       .  S
C1294      C1652   1.546       .  S
C1294      C1785   1.535       .  S
C1295      C1296   1.401       .  D
C1295      C2225   1.553       .  S
C1295      C2255   1.525       .  S
C1296      C1645   1.522       .  S
C1296      C1715   1.553       .  S
C1297      C1298   1.392       .  D
C1297      C2115   1.529       .  S
C1297      C2245   1.527       .  S
C1298      C1705   1.526       .  S
C1298      C1745   1.529       .  S
C1299      C1300   1.388       .  D
C1299      C1332   1.524       .  S
C1299      C1402   1.524       .  S
C1300      C1855   1.525       .  S
C1300      C1975   1.525       .  S
C1301      C1302   1.399   1_554  D
C1301      C1845   1.556       .  S
C1301      C2005   1.503       .  S
C1302      C1565   1.509   1_556  S
C1302      C1685   1.550       .  S
C1303      C1304   1.405       .  D
C1303      C2052   1.533       .  S
C1303      C2215   1.538       .  S
C1304      C1895   1.550       .  S
C1304      C1935   1.511       .  S
C1305      C1306   1.390       .  D
C1305      C1885   1.524       .  S
C1305      C2025   1.526       .  S
C1306      C2152   1.527       .  S
C1306      C2205   1.525       .  S
C1307      C1308   1.404       .  D
C1307      C2045   1.562       .  S
C1307      C2105   1.508       .  S
C1308      C1925   1.563       .  S
C1308      C1965   1.503       .  S
C1309      C1310   1.391       .  D
C1309      C1825   1.527       .  S
C1309      C1982   1.527       .  S
C1310      C1352   1.526       .  S
C1310      C1542   1.528       .  S
C1311      C1312   1.393       .  D
C1311      C1582   1.530       .  S
C1311      C1725   1.526       .  S
C1312      C1325   1.526       .  S
C1312      C1505   1.529       .  S
C1313      C1314   1.395       .  D
C1313      C1802   1.528       .  S
C1313      C2015   1.528   1_556  S
C1314      C1575   1.530   1_556  S
C1314      C1775   1.531       .  S
C1315      C1316   1.404       .  D
C1315      C2095   1.536       .  S
C1315      C2132   1.537       .  S
C1316      C1992   1.516       .  S
C1316      C2035   1.539       .  S
C1317      C1318   1.397       .  D
C1317      C1515   1.534       .  S
C1317      C1555   1.528       .  S
C1318      C2125   1.534       .  S
C1318      C2165   1.529       .  S
C1319      C1320   1.403       .  D
C1319      C2085   1.502       .  S
C1319      C2172   1.560       .  S
C1320      C1755   1.505       .  S
C1320      C1795   1.558       .  S
C1321      C1322   1.417       .  A
C1321      C1326   1.403       .  A
C1321     Br1328   1.945       .  S
C1322      C1323   1.411   1_565  A
C1323      C1324   1.417       .  A
C1323     Br1330   1.934       .  S
C1324      C1325   1.428   1_545  A
C1324     Br1329   1.931       .  S
C1325      C1326   1.422       .  A
C1326     Br1327   1.933       .  S
C1331      C1332   1.431   1_655  A
C1331      C1336   1.416       .  A
C1331     Br1338   1.931       .  S
C1332      C1333   1.421       .  A
C1333      C1334   1.398       .  A
C1333     Br1340   1.930       .  S
C1334      C1335   1.412       .  A
C1334     Br1339   1.940       .  S
C1335      C1336   1.408   1_455  A
C1336     Br1337   1.934       .  S
C1341      C1342   1.411       .  A
C1341      C1346   1.402       .  A
C1341     Br1348   1.940       .  S
C1342      C1343   1.406   1_565  A
C1343      C1344   1.418       .  A
C1343     Br1350   1.934       .  S
C1344      C1345   1.433   1_545  A
C1344     Br1349   1.925       .  S
C1345      C1346   1.424       .  A
C1346     Br1347   1.928       .  S
C1351      C1352   1.421   1_655  A
C1351      C1356   1.405       .  A
C1351     Br1358   1.934       .  S
C1352      C1353   1.428       .  A
C1353      C1354   1.417       .  A
C1353     Br1360   1.933       .  S
C1354      C1355   1.412       .  A
C1354     Br1359   1.935       .  S
C1355      C1356   1.418   1_455  A
C1356     Br1357   1.941       .  S
C1361      C1362   1.410       .  A
C1361      C1366   1.419       .  A
C1361     Br1368   1.933       .  S
C1362      C1363   1.413   1_565  A
C1363      C1364   1.402       .  A
C1363     Br1370   1.940       .  S
C1364      C1365   1.422   1_545  A
C1364     Br1369   1.931       .  S
C1365      C1366   1.430       .  A
C1366     Br1367   1.930       .  S
C1371      C1372   1.412       .  A
C1371      C1376   1.400       .  A
C1371     Br1378   1.940       .  S
C1372      C1373   1.407   1_455  A
C1373      C1374   1.417       .  A
C1373     Br1380   1.933       .  S
C1374      C1375   1.432   1_655  A
C1374     Br1379   1.928       .  S
C1375      C1376   1.422       .  A
C1376     Br1377   1.931       .  S
C1381      C1382   1.415       .  A
C1381      C1386   1.427       .  A
C1381     Br1388   1.925       .  S
C1382      C1383   1.405       .  A
C1383      C1384   1.390       .  A
C1383     Br1390   1.919   1_565  S
C1384      C1385   1.415       .  A
C1384     Br1389   1.930       .  S
C1385      C1386   1.422       .  A
C1386     Br1387   1.923       .  S
C1391      C1392   1.409   1_655  A
C1391      C1396   1.416       .  A
C1391     Br1398   1.935       .  S
C1392      C1393   1.418       .  A
C1393      C1394   1.404       .  A
C1393     Br1400   1.947       .  S
C1394      C1395   1.423       .  A
C1394     Br1399   1.932       .  S
C1395      C1396   1.430   1_455  A
C1396     Br1397   1.931       .  S
C1401      C1402   1.431       .  A
C1401      C1406   1.417       .  A
C1401     Br1408   1.930       .  S
C1402      C1403   1.420   1_455  A
C1403      C1404   1.398       .  A
C1403     Br1410   1.931       .  S
C1404      C1405   1.413   1_655  A
C1404     Br1409   1.940       .  S
C1405      C1406   1.408       .  A
C1406     Br1407   1.933       .  S
C1411      C1412   1.425       .  A
C1411      C1416   1.394       .  A
C1411     Br1418   1.936       .  S
C1412      C1413   1.423       .  A
C1413      C1414   1.426       .  A
C1413     Br1420   1.922       .  S
C1414      C1415   1.416       .  A
C1414     Br1419   1.928       .  S
C1415      C1416   1.409       .  A
C1416     Br1417   1.938       .  S
C1421      C1422   1.423       .  A
C1421      C1426   1.430       .  A
C1421     Br1428   1.914       .  S
C1422      C1423   1.417       .  A
C1423      C1424   1.386       .  A
C1423     Br1430   1.935       .  S
C1424      C1425   1.409       .  A
C1424     Br1429   1.929       .  S
C1425      C1426   1.418       .  A
C1426     Br1427   1.926       .  S
C1431      C1432   1.429   1_455  A
C1431      C1436   1.415       .  A
C1431     Br1438   1.932       .  S
C1432      C1433   1.424       .  A
C1433      C1434   1.407       .  A
C1433     Br1440   1.934       .  S
C1434      C1435   1.419       .  A
C1434     Br1439   1.947       .  S
C1435      C1436   1.410   1_655  A
C1436     Br1437   1.936       .  S
C1441      C1442   1.407       .  A
C1441      C1446   1.417       .  A
C1441     Br1448   1.935       .  S
C1442      C1443   1.411   1_565  A
C1443      C1444   1.401       .  A
C1443     Br1450   1.941       .  S
C1444      C1445   1.423   1_545  A
C1444     Br1449   1.928       .  S
C1445      C1446   1.432       .  A
C1446     Br1447   1.925       .  S
C1451      C1452   1.415       .  A
C1451      C1456   1.412       .  A
C1451     Br1458   1.930       .  S
C1452      C1453   1.425       .  A
C1453      C1454   1.409       .  A
C1453     Br1460   1.938       .  S
C1454      C1455   1.417       .  A
C1454     Br1459   1.948       .  S
C1455      C1456   1.413       .  A
C1456     Br1457   1.924       .  S
C1461      C1462   1.410       .  A
C1461      C1466   1.420       .  A
C1461     Br1468   1.933       .  S
C1462      C1463   1.413       .  A
C1463      C1464   1.406       .  A
C1463     Br1470   1.941       .  S
C1464      C1465   1.425       .  A
C1464     Br1469   1.930       .  S
C1465      C1466   1.432       .  A
C1466     Br1467   1.928       .  S
C1471      C1472   1.421       .  A
C1471      C1476   1.398       .  A
C1471     Br1478   1.930       .  S
C1472      C1473   1.431   1_565  A
C1473      C1474   1.418       .  A
C1473     Br1480   1.930       .  S
C1474      C1475   1.408   1_545  A
C1474     Br1479   1.932       .  S
C1475      C1476   1.411       .  A
C1476     Br1477   1.940       .  S
C1481      C1482   1.423       .  A
C1481      C1486   1.411       .  A
C1481     Br1488   1.932       .  S
C1482      C1483   1.420       .  A
C1483      C1484   1.408       .  A
C1483     Br1490   1.929       .  S
C1484      C1485   1.411       .  A
C1484     Br1489   1.928       .  S
C1485      C1486   1.409       .  A
C1486     Br1487   1.930       .  S
C1491      C1492   1.425   1_545  A
C1491      C1496   1.402       .  A
C1491     Br1498   1.938       .  S
C1492      C1493   1.417       .  A
C1493      C1494   1.412       .  A
C1493     Br1500   1.930       .  S
C1494      C1495   1.412       .  A
C1494     Br1499   1.928       .  S
C1495      C1496   1.408   1_565  A
C1496     Br1497   1.927       .  S
C1501      C1502   1.409       .  A
C1501      C1506   1.417       .  A
C1501     Br1508   1.934       .  S
C1502      C1503   1.415   1_565  A
C1503      C1504   1.403       .  A
C1503     Br1510   1.944       .  S
C1504      C1505   1.423   1_545  A
C1504     Br1509   1.933       .  S
C1505      C1506   1.431       .  A
C1506     Br1507   1.930       .  S
C1511      C1512   1.414       .  A
C1511      C1516   1.405       .  A
C1511     Br1518   1.943       .  S
C1512      C1513   1.409       .  A
C1513      C1514   1.417       .  A
C1513     Br1520   1.936       .  S
C1514      C1515   1.432       .  A
C1514     Br1519   1.929       .  S
C1515      C1516   1.425       .  A
C1516     Br1517   1.930       .  S
C1521      C1522   1.415       .  A
C1521      C1526   1.404       .  A
C1521     Br1528   1.943       .  S
C1522      C1523   1.410       .  A
C1523      C1524   1.416       .  A
C1523     Br1530   1.935       .  S
C1524      C1525   1.429       .  A
C1524     Br1529   1.929       .  S
C1525      C1526   1.423       .  A
C1526     Br1527   1.933       .  S
C1531      C1532   1.408       .  A
C1531      C1536   1.416       .  A
C1531     Br1538   1.933       .  S
C1532      C1533   1.412   1_455  A
C1533      C1534   1.398       .  A
C1533     Br1540   1.941       .  S
C1534      C1535   1.420   1_655  A
C1534     Br1539   1.931       .  S
C1535      C1536   1.429       .  A
C1536     Br1537   1.930       .  S
C1541      C1542   1.422       .  A
C1541      C1546   1.398       .  A
C1541     Br1548   1.929       .  S
C1542      C1543   1.432   1_455  A
C1543      C1544   1.418       .  A
C1543     Br1550   1.931       .  S
C1544      C1545   1.408   1_655  A
C1544     Br1549   1.933       .  S
C1545      C1546   1.411       .  A
C1546     Br1547   1.940       .  S
C1551      C1552   1.411       .  A
C1551      C1556   1.417       .  A
C1551     Br1558   1.935       .  S
C1552      C1553   1.419       .  A
C1553      C1554   1.407       .  A
C1553     Br1560   1.947       .  S
C1554      C1555   1.423       .  A
C1554     Br1559   1.933       .  S
C1555      C1556   1.428       .  A
C1556     Br1557   1.931       .  S
C1561      C1562   1.412   1_556  A
C1561      C1566   1.413       .  A
C1561     Br1568   1.933       .  S
C1562      C1563   1.421       .  A
C1563      C1564   1.411       .  A
C1563     Br1570   1.936       .  S
C1564      C1565   1.415       .  A
C1564     Br1569   1.934       .  S
C1565      C1566   1.420   1_554  A
C1566     Br1567   1.926       .  S
C1571      C1572   1.411       .  A
C1571      C1576   1.399       .  A
C1571     Br1578   1.941       .  S
C1572      C1573   1.409   1_554  A
C1573      C1574   1.420       .  A
C1573     Br1580   1.932       .  S
C1574      C1575   1.432   1_556  A
C1574     Br1579   1.929       .  S
C1575      C1576   1.422       .  A
C1576     Br1577   1.926       .  S
C1581      C1582   1.431       .  A
C1581      C1586   1.416       .  A
C1581     Br1588   1.928       .  S
C1582      C1583   1.424   1_565  A
C1583      C1584   1.403       .  A
C1583     Br1590   1.930       .  S
C1584      C1585   1.413   1_545  A
C1584     Br1589   1.942       .  S
C1585      C1586   1.408       .  A
C1586     Br1587   1.934       .  S
C1591      C1592   1.420   1_545  A
C1591      C1596   1.413       .  A
C1591     Br1598   1.923       .  S
C1592      C1593   1.414       .  A
C1593      C1594   1.407       .  A
C1593     Br1600   1.936       .  S
C1594      C1595   1.420       .  A
C1594     Br1599   1.937       .  S
C1595      C1596   1.409   1_565  A
C1596     Br1597   1.932       .  S
C1601      C1602   1.409   1_554  A
C1601      C1606   1.416       .  A
C1601     Br1608   1.935       .  S
C1602      C1603   1.412       .  A
C1603      C1604   1.400       .  A
C1603     Br1610   1.940       .  S
C1604      C1605   1.422       .  A
C1604     Br1609   1.930       .  S
C1605      C1606   1.431   1_556  A
C1606     Br1607   1.930       .  S
C1611      C1612   1.407       .  A
C1611      C1616   1.404       .  A
C1611     Br1618   1.941       .  S
C1612      C1613   1.421   1_556  A
C1613      C1614   1.421       .  A
C1613     Br1620   1.929       .  S
C1614      C1615   1.427   1_554  A
C1614     Br1619   1.920       .  S
C1615      C1616   1.429       .  A
C1616     Br1617   1.919       .  S
C1621      C1622   1.412   1_545  A
C1621      C1626   1.403       .  A
C1621     Br1628   1.934       .  S
C1622      C1623   1.415       .  A
C1623      C1624   1.422       .  A
C1623     Br1630   1.934       .  S
C1624      C1625   1.430       .  A
C1624     Br1629   1.931       .  S
C1625      C1626   1.422   1_565  A
C1626     Br1627   1.926       .  S
C1631      C1632   1.413       .  A
C1631      C1636   1.399       .  A
C1631     Br1638   1.940       .  S
C1632      C1633   1.409   1_565  A
C1633      C1634   1.416       .  A
C1633     Br1640   1.934       .  S
C1634      C1635   1.430   1_545  A
C1634     Br1639   1.930       .  S
C1635      C1636   1.421       .  A
C1636     Br1637   1.930       .  S
C1641      C1642   1.424       .  A
C1641      C1646   1.409       .  A
C1641     Br1648   1.937       .  S
C1642      C1643   1.415       .  A
C1643      C1644   1.416       .  A
C1643     Br1650   1.932       .  S
C1644      C1645   1.417       .  A
C1644     Br1649   1.923       .  S
C1645      C1646   1.417       .  A
C1646     Br1647   1.938       .  S
C1651      C1652   1.435       .  A
C1651      C1656   1.416       .  A
C1651     Br1658   1.921       .  S
C1652      C1653   1.427       .  A
C1653      C1654   1.411       .  A
C1653     Br1660   1.929       .  S
C1654      C1655   1.414       .  A
C1654     Br1659   1.938       .  S
C1655      C1656   1.404       .  A
C1656     Br1657   1.938       .  S
C1661      C1662   1.423   1_545  A
C1661      C1666   1.402       .  A
C1661     Br1668   1.931       .  S
C1662      C1663   1.431       .  A
C1663      C1664   1.420       .  A
C1663     Br1670   1.930       .  S
C1664      C1665   1.409       .  A
C1664     Br1669   1.932       .  S
C1665      C1666   1.412   1_565  A
C1666     Br1667   1.939       .  S
C1671      C1672   1.418       .  A
C1671      C1676   1.412       .  A
C1671     Br1678   1.926       .  S
C1672      C1673   1.416   1_545  A
C1673      C1674   1.403       .  A
C1673     Br1680   1.926   1_565  S
C1674      C1675   1.403       .  A
C1674     Br1679   1.925       .  S
C1675      C1676   1.419   1_565  A
C1676     Br1677   1.931       .  S
C1681      C1682   1.420       .  A
C1681      C1686   1.411       .  A
C1681     Br1688   1.932       .  S
C1682      C1683   1.404   1_556  A
C1683      C1684   1.405   1_554  A
C1683     Br1690   1.925       .  S
C1684      C1685   1.416       .  A
C1684     Br1689   1.926       .  S
C1685      C1686   1.417       .  A
C1686     Br1687   1.925       .  S
C1691      C1692   1.432       .  A
C1691      C1696   1.420       .  A
C1691     Br1698   1.935       .  S
C1692      C1693   1.423   1_556  A
C1693      C1694   1.406       .  A
C1693     Br1700   1.942       .  S
C1694      C1695   1.411   1_554  A
C1694     Br1699   1.923       .  S
C1695      C1696   1.413       .  A
C1696     Br1697   1.946       .  S
C1701      C1702   1.412       .  A
C1701      C1706   1.400       .  A
C1701     Br1708   1.940       .  S
C1702      C1703   1.409       .  A
C1703      C1704   1.417       .  A
C1703     Br1710   1.934       .  S
C1704      C1705   1.430       .  A
C1704     Br1709   1.930       .  S
C1705      C1706   1.422       .  A
C1706     Br1707   1.931       .  S
C1711      C1712   1.405       .  A
C1711      C1716   1.386       .  A
C1711     Br1718   1.916       .  S
C1712      C1713   1.418       .  A
C1713      C1714   1.433       .  A
C1713     Br1720   1.924       .  S
C1714      C1715   1.425       .  A
C1714     Br1719   1.918       .  S
C1715      C1716   1.414       .  A
C1716     Br1717   1.932       .  S
C1721      C1722   1.416       .  A
C1721      C1726   1.403       .  A
C1721     Br1728   1.944       .  S
C1722      C1723   1.409   1_565  A
C1723      C1724   1.415       .  A
C1723     Br1730   1.934       .  S
C1724      C1725   1.429   1_545  A
C1724     Br1729   1.930       .  S
C1725      C1726   1.423       .  A
C1726     Br1727   1.934       .  S
C1731      C1732   1.422       .  A
C1731      C1736   1.402       .  A
C1731     Br1738   1.924       .  S
C1732      C1733   1.431   1_565  A
C1733      C1734   1.422       .  A
C1733     Br1740   1.931       .  S
C1734      C1735   1.415   1_545  A
C1734     Br1739   1.933       .  S
C1735      C1736   1.408       .  A
C1736     Br1737   1.933       .  S
C1741      C1742   1.408       .  A
C1741      C1746   1.419       .  A
C1741     Br1748   1.932       .  S
C1742      C1743   1.411       .  A
C1743      C1744   1.399       .  A
C1743     Br1750   1.939       .  S
C1744      C1745   1.422       .  A
C1744     Br1749   1.931       .  S
C1745      C1746   1.431       .  A
C1746     Br1747   1.929       .  S
C1751      C1752   1.412       .  A
C1751      C1756   1.414       .  A
C1751     Br1758   1.931       .  S
C1752      C1753   1.419       .  A
C1753      C1754   1.406       .  A
C1753     Br1760   1.937       .  S
C1754      C1755   1.413       .  A
C1754     Br1759   1.931       .  S
C1755      C1756   1.419       .  A
C1756     Br1757   1.928       .  S
C1761      C1762   1.408       .  A
C1761      C1766   1.418       .  A
C1761     Br1768   1.933       .  S
C1762      C1763   1.411   1_556  A
C1763      C1764   1.398       .  A
C1763     Br1770   1.940       .  S
C1764      C1765   1.420   1_554  A
C1764     Br1769   1.929       .  S
C1765      C1766   1.431       .  A
C1766     Br1767   1.930       .  S
C1771      C1772   1.412       .  A
C1771      C1776   1.402       .  A
C1771     Br1778   1.939       .  S
C1772      C1773   1.406   1_556  A
C1773      C1774   1.416       .  A
C1773     Br1780   1.935       .  S
C1774      C1775   1.432   1_554  A
C1774     Br1779   1.926       .  S
C1775      C1776   1.423       .  A
C1776     Br1777   1.930       .  S
C1781      C1782   1.410       .  A
C1781      C1786   1.402       .  A
C1781     Br1788   1.940       .  S
C1782      C1783   1.414       .  A
C1783      C1784   1.427       .  A
C1783     Br1790   1.929       .  S
C1784      C1785   1.430       .  A
C1784     Br1789   1.932       .  S
C1785      C1786   1.420       .  A
C1786     Br1787   1.921       .  S
C1791      C1792   1.404       .  A
C1791      C1796   1.409       .  A
C1791     Br1798   1.924       .  S
C1792      C1793   1.414       .  A
C1793      C1794   1.410       .  A
C1793     Br1800   1.930       .  S
C1794      C1795   1.421       .  A
C1794     Br1799   1.924       .  S
C1795      C1796   1.416       .  A
C1796     Br1797   1.924       .  S
C1801      C1802   1.422       .  A
C1801      C1806   1.399       .  A
C1801     Br1808   1.926       .  S
C1802      C1803   1.432   1_556  A
C1803      C1804   1.419       .  A
C1803     Br1810   1.931       .  S
C1804      C1805   1.410   1_554  A
C1804     Br1809   1.934       .  S
C1805      C1806   1.411       .  A
C1806     Br1807   1.941       .  S
C1811      C1812   1.421       .  A
C1811      C1816   1.403       .  A
C1811     Br1818   1.933       .  S
C1812      C1813   1.429   1_554  A
C1813      C1814   1.416       .  A
C1813     Br1820   1.933       .  S
C1814      C1815   1.411   1_556  A
C1814     Br1819   1.936       .  S
C1815      C1816   1.416       .  A
C1816     Br1817   1.940       .  S
C1821      C1822   1.406   1_655  A
C1821      C1826   1.416       .  A
C1821     Br1828   1.935       .  S
C1822      C1823   1.413       .  A
C1823      C1824   1.400       .  A
C1823     Br1830   1.940       .  S
C1824      C1825   1.421       .  A
C1824     Br1829   1.930       .  S
C1825      C1826   1.432   1_455  A
C1826     Br1827   1.927       .  S
C1831      C1832   1.409       .  A
C1831      C1836   1.415       .  A
C1831     Br1838   1.934       .  S
C1832      C1833   1.415   1_455  A
C1833      C1834   1.400       .  A
C1833     Br1840   1.941       .  S
C1834      C1835   1.421   1_655  A
C1834     Br1839   1.933       .  S
C1835      C1836   1.428       .  A
C1836     Br1837   1.931       .  S
C1841      C1842   1.406       .  A
C1841      C1846   1.396       .  A
C1841     Br1848   1.917   1_554  S
C1842      C1843   1.411       .  A
C1843      C1844   1.423       .  A
C1843     Br1850   1.925       .  S
C1844      C1845   1.419       .  A
C1844     Br1849   1.924       .  S
C1845      C1846   1.416       .  A
C1846     Br1847   1.929       .  S
C1851      C1852   1.412       .  A
C1851      C1856   1.397       .  A
C1851     Br1858   1.940       .  S
C1852      C1853   1.409   1_655  A
C1853      C1854   1.417       .  A
C1853     Br1860   1.933       .  S
C1854      C1855   1.431       .  A
C1854     Br1859   1.932       .  S
C1855      C1856   1.420   1_455  A
C1856     Br1857   1.930       .  S
C1861      C1862   1.422       .  A
C1861      C1866   1.413       .  A
C1861     Br1868   1.922       .  S
C1862      C1863   1.422   1_556  A
C1863      C1864   1.413       .  A
C1863     Br1870   1.939       .  S
C1864      C1865   1.420   1_554  A
C1864     Br1869   1.937       .  S
C1865      C1866   1.410       .  A
C1866     Br1867   1.935       .  S
C1871      C1872   1.415       .  A
C1871      C1876   1.401       .  A
C1871     Br1878   1.944       .  S
C1872      C1873   1.409   1_655  A
C1873      C1874   1.416       .  A
C1873     Br1880   1.934       .  S
C1874      C1875   1.430   1_455  A
C1874     Br1879   1.929       .  S
C1875      C1876   1.422       .  A
C1876     Br1877   1.931       .  S
C1881      C1882   1.412       .  A
C1881      C1886   1.398       .  A
C1881     Br1888   1.940       .  S
C1882      C1883   1.409       .  A
C1883      C1884   1.417       .  A
C1883     Br1890   1.933       .  S
C1884      C1885   1.430       .  A
C1884     Br1889   1.931       .  S
C1885      C1886   1.421       .  A
C1886     Br1887   1.931       .  S
C1891      C1892   1.407       .  A
C1891      C1896   1.394       .  A
C1891     Br1898   1.934       .  S
C1892      C1893   1.410       .  A
C1893      C1894   1.421       .  A
C1893     Br1900   1.928       .  S
C1894      C1895   1.423       .  A
C1894     Br1899   1.917       .  S
C1895      C1896   1.427       .  A
C1896     Br1897   1.939       .  S
C1901      C1902   1.411       .  A
C1901      C1906   1.399       .  A
C1901     Br1908   1.940       .  S
C1902      C1903   1.408   1_455  A
C1903      C1904   1.418       .  A
C1903     Br1910   1.933       .  S
C1904      C1905   1.432   1_655  A
C1904     Br1909   1.930       .  S
C1905      C1906   1.422       .  A
C1906     Br1907   1.930       .  S
C1911      C1912   1.414       .  A
C1911      C1916   1.402       .  A
C1911     Br1918   1.943       .  S
C1912      C1913   1.407   1_455  A
C1913      C1914   1.414       .  A
C1913     Br1920   1.935       .  S
C1914      C1915   1.430   1_655  A
C1914     Br1919   1.929       .  S
C1915      C1916   1.423       .  A
C1916     Br1917   1.933       .  S
C1921      C1922   1.412       .  A
C1921      C1926   1.424       .  A
C1921     Br1928   1.924       .  S
C1922      C1923   1.406       .  A
C1923      C1924   1.400       .  A
C1923     Br1930   1.920       .  S
C1924      C1925   1.420       .  A
C1924     Br1929   1.929       .  S
C1925      C1926   1.420       .  A
C1926     Br1927   1.926       .  S
C1931      C1932   1.412       .  A
C1931      C1936   1.402       .  A
C1931     Br1938   1.927       .  S
C1932      C1933   1.418       .  A
C1933      C1934   1.414       .  A
C1933     Br1940   1.937       .  S
C1934      C1935   1.423       .  A
C1934     Br1939   1.927       .  S
C1935      C1936   1.412       .  A
C1936     Br1937   1.938       .  S
C1941      C1942   1.408   1_554  A
C1941      C1946   1.418       .  A
C1941     Br1948   1.933       .  S
C1942      C1943   1.411       .  A
C1943      C1944   1.397       .  A
C1943     Br1950   1.941       .  S
C1944      C1945   1.421       .  A
C1944     Br1949   1.928       .  S
C1945      C1946   1.432   1_556  A
C1946     Br1947   1.930       .  S
C1951      C1952   1.426       .  A
C1951      C1956   1.399       .  A
C1951     Br1958   1.925       .  S
C1952      C1953   1.449       .  A
C1953      C1954   1.416   1_556  A
C1953     Br1960   1.918       .  S
C1954      C1955   1.392   1_554  A
C1954     Br1959   1.945       .  S
C1955      C1956   1.398       .  A
C1956     Br1957   1.928       .  S
C1961      C1962   1.414       .  A
C1961      C1966   1.411       .  A
C1961     Br1968   1.931       .  S
C1962      C1963   1.425       .  A
C1963      C1964   1.409       .  A
C1963     Br1970   1.937       .  S
C1964      C1965   1.412       .  A
C1964     Br1969   1.931       .  S
C1965      C1966   1.416       .  A
C1966     Br1967   1.925       .  S
C1971      C1972   1.412       .  A
C1971      C1976   1.398       .  A
C1971     Br1978   1.940       .  S
C1972      C1973   1.408   1_455  A
C1973      C1974   1.418       .  A
C1973     Br1980   1.933       .  S
C1974      C1975   1.431   1_655  A
C1974     Br1979   1.931       .  S
C1975      C1976   1.420       .  A
C1976     Br1977   1.930       .  S
C1981      C1982   1.422   1_655  A
C1981      C1986   1.400       .  A
C1981     Br1988   1.930       .  S
C1982      C1983   1.431       .  A
C1983      C1984   1.418       .  A
C1983     Br1990   1.930       .  S
C1984      C1985   1.409       .  A
C1984     Br1989   1.933       .  S
C1985      C1986   1.412   1_455  A
C1986     Br1987   1.940       .  S
C1991      C1992   1.424       .  A
C1991      C1996   1.416       .  A
C1991     Br1998   1.927       .  S
C1992      C1993   1.418       .  A
C1993      C1994   1.406       .  A
C1993     Br2000   1.933       .  S
C1994      C1995   1.417       .  A
C1994     Br1999   1.939       .  S
C1995      C1996   1.413       .  A
C1996     Br1997   1.931       .  S
C2001      C2002   1.418   1_554  A
C2001      C2006   1.413       .  A
C2001     Br2008   1.931       .  S
C2002      C2003   1.424       .  A
C2003      C2004   1.407       .  A
C2003     Br2010   1.936       .  S
C2004      C2005   1.409   1_556  A
C2004     Br2009   1.926       .  S
C2005      C2006   1.414       .  A
C2006     Br2007   1.930       .  S
C2011      C2012   1.416   1_556  A
C2011      C2016   1.421       .  A
C2011     Br2018   1.935       .  S
C2012      C2013   1.413       .  A
C2013      C2014   1.404       .  A
C2013     Br2020   1.933       .  S
C2014      C2015   1.421       .  A
C2014     Br2019   1.930       .  S
C2015      C2016   1.429   1_554  A
C2016     Br2017   1.933       .  S
C2021      C2022   1.408       .  A
C2021      C2026   1.418       .  A
C2021     Br2028   1.933       .  S
C2022      C2023   1.411       .  A
C2023      C2024   1.399       .  A
C2023     Br2030   1.940       .  S
C2024      C2025   1.421       .  A
C2024     Br2029   1.930       .  S
C2025      C2026   1.431       .  A
C2026     Br2027   1.930       .  S
C2031      C2032   1.413       .  A
C2031      C2036   1.403       .  A
C2031     Br2038   1.951       .  S
C2032      C2033   1.410       .  A
C2033      C2034   1.420       .  A
C2033     Br2040   1.933       .  S
C2034      C2035   1.429       .  A
C2034     Br2039   1.928       .  S
C2035      C2036   1.435       .  A
C2036     Br2037   1.936       .  S
C2041      C2042   1.412       .  A
C2041      C2046   1.407       .  A
C2041     Br2048   1.925       .  S
C2042      C2043   1.406       .  A
C2043      C2044   1.413       .  A
C2043     Br2050   1.925       .  S
C2044      C2045   1.418       .  A
C2044     Br2049   1.925       .  S
C2045      C2046   1.420       .  A
C2046     Br2047   1.926       .  S
C2051      C2052   1.422       .  A
C2051      C2056   1.398       .  A
C2051     Br2058   1.918       .  S
C2052      C2053   1.431       .  A
C2053      C2054   1.425       .  A
C2053     Br2060   1.923       .  S
C2054      C2055   1.411       .  A
C2054     Br2059   1.930       .  S
C2055      C2056   1.408       .  A
C2056     Br2057   1.939       .  S
C2061      C2062   1.431       .  A
C2061      C2066   1.419       .  A
C2061     Br2068   1.930       .  S
C2062      C2063   1.425       .  A
C2063      C2064   1.410       .  A
C2063     Br2070   1.933       .  S
C2064      C2065   1.419       .  A
C2064     Br2069   1.944       .  S
C2065      C2066   1.411       .  A
C2066     Br2067   1.935       .  S
C2071      C2072   1.406       .  A
C2071      C2076   1.395       .  A
C2071     Br2078   1.922       .  S
C2072      C2073   1.416       .  A
C2073      C2074   1.428       .  A
C2073     Br2080   1.922       .  S
C2074      C2075   1.415       .  A
C2074     Br2079   1.924       .  S
C2075      C2076   1.419       .  A
C2076     Br2077   1.930       .  S
C2081      C2082   1.425       .  A
C2081      C2086   1.409       .  A
C2081     Br2088   1.938       .  S
C2082      C2083   1.415       .  A
C2083      C2084   1.411       .  A
C2083     Br2090   1.931       .  S
C2084      C2085   1.416       .  A
C2084     Br2089   1.928       .  S
C2085      C2086   1.410       .  A
C2086     Br2087   1.930       .  S
C2091      C2092   1.415       .  A
C2091      C2096   1.406       .  A
C2091     Br2098   1.943       .  S
C2092      C2093   1.414       .  A
C2093      C2094   1.424       .  A
C2093     Br2100   1.931       .  S
C2094      C2095   1.430       .  A
C2094     Br2099   1.932       .  S
C2095      C2096   1.423       .  A
C2096     Br2097   1.927       .  S
C2101      C2102   1.414       .  A
C2101      C2106   1.416       .  A
C2101     Br2108   1.930       .  S
C2102      C2103   1.420       .  A
C2103      C2104   1.407       .  A
C2103     Br2110   1.937       .  S
C2104      C2105   1.414       .  A
C2104     Br2109   1.931       .  S
C2105      C2106   1.419       .  A
C2106     Br2107   1.927       .  S
C2111      C2112   1.413       .  A
C2111      C2116   1.400       .  A
C2111     Br2118   1.940       .  S
C2112      C2113   1.409       .  A
C2113      C2114   1.418       .  A
C2113     Br2120   1.933       .  S
C2114      C2115   1.431       .  A
C2114     Br2119   1.929       .  S
C2115      C2116   1.421       .  A
C2116     Br2117   1.931       .  S
C2121      C2122   1.409       .  A
C2121      C2126   1.417       .  A
C2121     Br2128   1.936       .  S
C2122      C2123   1.416       .  A
C2123      C2124   1.407       .  A
C2123     Br2130   1.945       .  S
C2124      C2125   1.424       .  A
C2124     Br2129   1.931       .  S
C2125      C2126   1.432       .  A
C2126     Br2127   1.928       .  S
C2131      C2132   1.427       .  A
C2131      C2136   1.411       .  A
C2131     Br2138   1.933       .  S
C2132      C2133   1.431       .  A
C2133      C2134   1.414       .  A
C2133     Br2140   1.929       .  S
C2134      C2135   1.408       .  A
C2134     Br2139   1.938       .  S
C2135      C2136   1.416       .  A
C2136     Br2137   1.943       .  S
C2141      C2142   1.417       .  A
C2141      C2146   1.409       .  A
C2141     Br2148   1.935       .  S
C2142      C2143   1.420       .  A
C2143      C2144   1.420       .  A
C2143     Br2150   1.930       .  S
C2144      C2145   1.415       .  A
C2144     Br2149   1.930       .  S
C2145      C2146   1.419       .  A
C2146     Br2147   1.937       .  S
C2151      C2152   1.421       .  A
C2151      C2156   1.399       .  A
C2151     Br2158   1.931       .  S
C2152      C2153   1.431       .  A
C2153      C2154   1.417       .  A
C2153     Br2160   1.930       .  S
C2154      C2155   1.408       .  A
C2154     Br2159   1.933       .  S
C2155      C2156   1.413       .  A
C2156     Br2157   1.940       .  S
C2161      C2162   1.418       .  A
C2161      C2166   1.407       .  A
C2161     Br2168   1.946       .  S
C2162      C2163   1.411       .  A
C2163      C2164   1.416       .  A
C2163     Br2170   1.936       .  S
C2164      C2165   1.429       .  A
C2164     Br2169   1.932       .  S
C2165      C2166   1.424       .  A
C2166     Br2167   1.932       .  S
C2171      C2172   1.420       .  A
C2171      C2176   1.400       .  A
C2171     Br2178   1.927       .  S
C2172      C2173   1.419       .  A
C2173      C2174   1.423       .  A
C2173     Br2180   1.926       .  S
C2174      C2175   1.411       .  A
C2174     Br2179   1.925       .  S
C2175      C2176   1.407       .  A
C2176     Br2177   1.923       .  S
C2181      C2182   1.413       .  A
C2181      C2186   1.419       .  A
C2181     Br2188   1.934       .  S
C2182      C2183   1.416       .  A
C2183      C2184   1.404       .  A
C2183     Br2190   1.944       .  S
C2184      C2185   1.422       .  A
C2184     Br2189   1.930       .  S
C2185      C2186   1.429       .  A
C2186     Br2187   1.931       .  S
C2191      C2192   1.413       .  A
C2191      C2196   1.399       .  A
C2191     Br2198   1.929       .  S
C2192      C2193   1.420       .  A
C2193      C2194   1.421       .  A
C2193     Br2200   1.931       .  S
C2194      C2195   1.420       .  A
C2194     Br2199   1.925       .  S
C2195      C2196   1.412       .  A
C2196     Br2197   1.935       .  S
C2201      C2202   1.412       .  A
C2201      C2206   1.398       .  A
C2201     Br2208   1.940       .  S
C2202      C2203   1.408       .  A
C2203      C2204   1.418       .  A
C2203     Br2210   1.932       .  S
C2204      C2205   1.430       .  A
C2204     Br2209   1.930       .  S
C2205      C2206   1.421       .  A
C2206     Br2207   1.931       .  S
C2211      C2212   1.421       .  A
C2211      C2216   1.406       .  A
C2211     Br2218   1.945       .  S
C2212      C2213   1.415       .  A
C2213      C2214   1.414       .  A
C2213     Br2220   1.931       .  S
C2214      C2215   1.421       .  A
C2214     Br2219   1.915       .  S
C2215      C2216   1.422       .  A
C2216     Br2217   1.916       .  S
C2221      C2222   1.417       .  A
C2221      C2226   1.429       .  A
C2221     Br2228   1.924       .  S
C2222      C2223   1.404       .  A
C2223      C2224   1.391       .  A
C2223     Br2230   1.922       .  S
C2224      C2225   1.418       .  A
C2224     Br2229   1.932       .  S
C2225      C2226   1.422       .  A
C2226     Br2227   1.921       .  S
C2231      C2232   1.416       .  A
C2231      C2236   1.425       .  A
C2231     Br2238   1.930       .  S
C2232      C2233   1.412       .  A
C2233      C2234   1.400       .  A
C2233     Br2240   1.943       .  S
C2234      C2235   1.433       .  A
C2234     Br2239   1.939       .  S
C2235      C2236   1.425       .  A
C2236     Br2237   1.926       .  S
C2241      C2242   1.412       .  A
C2241      C2246   1.400       .  A
C2241     Br2248   1.939       .  S
C2242      C2243   1.409       .  A
C2243      C2244   1.418       .  A
C2243     Br2250   1.933       .  S
C2244      C2245   1.430       .  A
C2244     Br2249   1.930       .  S
C2245      C2246   1.422       .  A
C2246     Br2247   1.931       .  S
C2251      C2252   1.411       .  A
C2251      C2256   1.415       .  A
C2251     Br2258   1.932       .  S
C2252      C2253   1.421       .  A
C2253      C2254   1.407       .  A
C2253     Br2260   1.940       .  S
C2254      C2255   1.417       .  A
C2254     Br2259   1.932       .  S
C2255      C2256   1.421       .  A
C2256     Br2257   1.922       .  S
C2261      C2262   1.419       .  A
C2261      C2266   1.410       .  A
C2261     Br2268   1.931       .  S
C2262      C2263   1.424       .  A
C2263      C2264   1.410       .  A
C2263     Br2270   1.921       .  S
C2264      C2265   1.407       .  A
C2264     Br2269   1.934       .  S
C2265      C2266   1.420       .  A
C2266     Br2267   1.941       .  S
C2271      C2272   1.421       .  A
C2271      C2276   1.414       .  A
C2271     Br2278   1.935       .  S
C2272      C2273   1.407       .  A
C2273      C2274   1.401       .  A
C2273     Br2280   1.930       .  S
C2274      C2275   1.422       .  A
C2274     Br2279   1.924       .  S
C2275      C2276   1.418       .  A
C2276     Br2277   1.926       .  S
