geometry optimzed in LAMMPS
_audit_creation_date              2020-12-01 
_audit_creation_method            'lammps2cif' 
_symmetry_space_group_name_H-M    'P1' 
_symmetry_Int_Tables_number       1 
_symmetry_cell_setting            triclinic 
loop_ 
_symmetry_equiv_pos_as_xyz 
  x,y,z 
_cell_length_a                    35.67236695 
_cell_length_b                    37.02331796824859 
_cell_length_c                    37.87961664839235 
_cell_angle_alpha                 93.20317784797372 
_cell_angle_beta                  90.09933914051359 
_cell_angle_gamma                 90.32311838022643 
loop_ 
_atom_site_label 
_atom_site_type_symbol 
_atom_site_fract_x 
_atom_site_fract_y 
_atom_site_fract_z 
_atom_site_charge 
C1          C  0.20382932  0.20173439  0.21895582     0.86500
C2          C  0.23144327  0.18169953  0.24202017    -0.53700
C3          C  0.25433777  0.20356863  0.26327429     0.09500
C4          C  0.24669287  0.24457129  0.25868769     0.20400
C5          C  0.18222463  0.22620769  0.24568634    -0.54400
C6          C  0.20408024  0.24962195  0.26589972     0.09600
C7          C  0.22812627  0.22725006  0.19831375    -0.54000
C8          C  0.25068942  0.24974446  0.21866802     0.10100
H9          H  0.23225443  0.15254660  0.24140469     0.14600
H10         H  0.26450554  0.26375348  0.27466893     0.00400
H11         H  0.15199150  0.22498050  0.24837029     0.14900
H12         H  0.22749768  0.22736843  0.16963703     0.14700
C13         C  0.10232025  0.45127618  0.42723048     0.30000
C14         C  0.10281501  0.51150372  0.47267734     0.30000
C15         C  0.13145918  0.48028395  0.41974398    -0.06200
C16         C  0.06531986  0.47357925  0.42760856    -0.06900
C17         C  0.10724169  0.44489745  0.46657126    -0.06800
C18         C  0.13189674  0.51057561  0.44299109    -0.06200
C19         C  0.06547886  0.50506523  0.45138229    -0.06900
C20         C  0.10728342  0.47519702  0.48930164    -0.06800
C21         C  0.14421047  0.53907247  0.42415861    -0.32200
N22         N  0.15110946  0.52745906  0.39033737     0.14300
C23         C  0.14298265  0.49169549  0.38730695    -0.32200
H24         H  0.14048770  0.47607091  0.36240394     0.16200
C25         C  0.02817669  0.51211171  0.45933581    -0.31200
N26         N  0.00580149  0.48793319  0.44061693     0.13000
C27         C  0.02809840  0.46377890  0.42240868    -0.31200
C28         C  0.11425723  0.46420375  0.52269304    -0.31500
N29         N  0.11933706  0.42789139  0.52069661     0.13500
H30         H  0.11665554  0.48161378  0.54652177     0.16100
C31         C  0.11453230  0.41572089  0.48649772    -0.31500
H32         H  0.11821801  0.38804299  0.47650533     0.16200
H33         H  0.01811030  0.43901026  0.40902031     0.16200
H34         H  0.14410259  0.56710768  0.43390482     0.16200
H35         H  0.01831927  0.53187884  0.47915104     0.16200
C36         C  0.21113879  0.76899280  0.67025891     0.86500
C37         C  0.23704953  0.78914896  0.64533325    -0.53700
C38         C  0.26020366  0.76719932  0.62536733     0.09500
C39         C  0.25480432  0.72647638  0.63126504     0.20400
C40         C  0.18983263  0.74186573  0.64538442    -0.54400
C41         C  0.21211556  0.71926344  0.62478385     0.09600
C42         C  0.23756423  0.74593337  0.69143218    -0.54000
C43         C  0.26068046  0.72383381  0.67153625     0.10100
H44         H  0.23784133  0.81818232  0.64319449     0.14600
H45         H  0.27390065  0.70895905  0.61488730     0.00400
H46         H  0.15946557  0.74020864  0.64503479     0.14900
H47         H  0.23811330  0.74730833  0.72015974     0.14700
C48         C  0.45761795  0.10409751  0.41796912     0.30000
C49         C  0.51833470  0.09697378  0.46188960     0.30000
C50         C  0.45702294  0.12631656  0.45356438    -0.06200
C51         C  0.46444098  0.06495055  0.43041927    -0.06900
C52         C  0.49640893  0.11381919  0.40263163    -0.06800
C53         C  0.48796102  0.12339915  0.47513684    -0.06200
C54         C  0.49561378  0.06231200  0.45290152    -0.06900
C55         C  0.52717351  0.11112065  0.42504856    -0.06800
C56         C  0.48111217  0.14383849  0.50587048    -0.32200
N57         N  0.44610650  0.15777026  0.50431010     0.14300
C58         C  0.43118576  0.14737712  0.47226787    -0.32200
H59         H  0.40280351  0.15273591  0.46398209     0.16200
C60         C  0.49876534  0.02712247  0.46208718    -0.31200
N61         N  0.47068566  0.00751377  0.44638559     0.13000
C62         C  0.44976412  0.02974934  0.42657367    -0.31200
C63         C  0.55651974  0.12857215  0.40892384    -0.31500
N64         N  0.54563424  0.13897509  0.37661595     0.13500
H65         H  0.58297771  0.13646723  0.42077405     0.16100
C66         C  0.50867050  0.13035674  0.37274886    -0.31500
H67         H  0.49142997  0.13665434  0.35044339     0.16200
H68         H  0.42670341  0.02048683  0.40989491     0.16200
H69         H  0.49971156  0.14727251  0.52838058     0.16200
H70         H  0.52073759  0.01615606  0.47799384     0.16200
C71         C  0.76065071  0.25792057  0.16274284     0.86500
C72         C  0.78360159  0.28539255  0.18636570    -0.53700
C73         C  0.76243386  0.30883858  0.20708763     0.09500
C74         C  0.71960526  0.30273035  0.20147798     0.20400
C75         C  0.73509120  0.23963585  0.18910605    -0.54400
C76         C  0.71335456  0.26271288  0.20920463     0.09600
C77         C  0.73445898  0.28108386  0.14124539    -0.54000
C78         C  0.71270213  0.30474627  0.16112069     0.10100
H79         H  0.81368318  0.28444906  0.18938365     0.14600
H80         H  0.70199785  0.32144434  0.21789020     0.00400
H81         H  0.73439734  0.21057462  0.19185300     0.14900
H82         H  0.73252662  0.27776322  0.11265339     0.14700
C83         C  0.23658435  0.23378255  0.74768868     0.86500
C84         C  0.21067125  0.25378513  0.72285185    -0.53700
C85         C  0.22840767  0.27927151  0.70445287     0.09500
C86         C  0.27055075  0.28202169  0.71161830     0.20400
C87         C  0.26762748  0.21811250  0.72303898    -0.54400
C88         C  0.28491620  0.24359283  0.70399949     0.09600
C89         C  0.25628614  0.26375643  0.77072618    -0.54000
C90         C  0.27453763  0.28908609  0.75198971     0.10100
H91         H  0.18079076  0.24841540  0.72025646     0.14600
H92         H  0.28502770  0.30148592  0.69510495     0.00400
H93         H  0.27423561  0.18971688  0.71876880     0.14900
H94         H  0.25550250  0.26451116  0.79938213     0.14700
C95         C  0.86841600  0.50646002  0.47557481     0.30000
C96         C  0.86636480  0.46063094  0.41553493     0.30000
C97         C  0.84590252  0.51993039  0.44378183    -0.06200
C98         C  0.90687677  0.49678581  0.45846974    -0.06900
C99         C  0.85052122  0.46862357  0.47959519    -0.06800
C100        C  0.84566352  0.49665746  0.41383424    -0.06200
C101        C  0.90614456  0.47340408  0.42773148    -0.06900
C102        C  0.85133192  0.44533030  0.44959785    -0.06800
C103        C  0.82795699  0.51369124  0.38722060    -0.32200
N104        N  0.81686439  0.54695511  0.39967221     0.14300
C105        C  0.82674552  0.55073438  0.43443764    -0.32200
H106        H  0.82162431  0.57491230  0.45092758     0.16200
C107        C  0.94327573  0.46734089  0.41839626    -0.31200
N108        N  0.96598774  0.48641253  0.44190264     0.13000
C109        C  0.94400270  0.50441913  0.46634500    -0.31200
C110        C  0.83571779  0.41283375  0.45807179    -0.31500
N111        N  0.82334856  0.41619491  0.49176689     0.13500
H112        H  0.83266983  0.38872794  0.44074727     0.16100
C113        C  0.83139024  0.45017723  0.50499922    -0.31500
H114        H  0.82341541  0.46028364  0.53120018     0.16200
H115        H  0.95409262  0.52136951  0.48854815     0.16200
H116        H  0.82458401  0.50286875  0.36026379     0.16200
H117        H  0.95312703  0.45026190  0.39628874     0.16200
C118        C  0.74347800  0.78845692  0.20163971     0.86500
C119        C  0.72220602  0.81559591  0.22653577    -0.53700
C120        C  0.69816276  0.79969077  0.24898495     0.09500
C121        C  0.69774316  0.75814376  0.24521208     0.20400
C122        C  0.76279603  0.76306021  0.22711820    -0.54400
C123        C  0.73874258  0.74701393  0.24969846     0.09600
C124        C  0.71280217  0.76495168  0.18329669    -0.54000
C125        C  0.68917039  0.74860329  0.20593337     0.10100
H126        H  0.72573837  0.84474373  0.22657950     0.14600
H127        H  0.67810268  0.74544923  0.26364384     0.00400
H128        H  0.79265128  0.75782968  0.22754957     0.14900
H129        H  0.71146600  0.75995355  0.15478699     0.14700
C130        C  0.73507671  0.18842711  0.69765509     0.86500
C131        C  0.70911568  0.16441372  0.67356772    -0.53700
C132        C  0.68579414  0.18320764  0.65321414     0.09500
C133        C  0.69038782  0.22427155  0.65782531     0.20400
C134        C  0.75569450  0.21221782  0.67153282    -0.54400
C135        C  0.73204690  0.23127336  0.65103926     0.09600
C136        C  0.70878899  0.21461619  0.71834506    -0.54000
C137        C  0.68559396  0.23369274  0.69750240     0.10100
H138        H  0.71065073  0.13522723  0.66998828     0.14600
H139        H  0.67160232  0.23911103  0.64035327     0.00400
H140        H  0.78599284  0.21454616  0.67005639     0.14900
H141        H  0.70943202  0.21841236  0.74696983     0.14700
C142        C  0.45960402  0.87642044  0.48095386     0.30000
C143        C  0.51703010  0.87945991  0.43296220     0.30000
C144        C  0.45698990  0.84951894  0.44819275    -0.06200
C145        C  0.46537315  0.91322043  0.46400688    -0.06900
C146        C  0.49939308  0.86753641  0.49512543    -0.06800
C147        C  0.48641804  0.85099455  0.42426784    -0.06200
C148        C  0.49440797  0.91419333  0.43958338    -0.06900
C149        C  0.52884892  0.86938093  0.47043052    -0.06800
C150        C  0.47752482  0.82825509  0.39556016    -0.32200
N151        N  0.44271562  0.81442322  0.40012082     0.14300
C152        C  0.43037048  0.82624312  0.43263522    -0.32200
H153        H  0.40259912  0.82089900  0.44248214     0.16200
C154        C  0.49675069  0.94880365  0.42821085    -0.31200
N155        N  0.46987521  0.96927381  0.44465163     0.13000
C156        C  0.45088078  0.94813424  0.46713279    -0.31200
C157        C  0.55572531  0.84498389  0.48049132    -0.31500
N158        N  0.54559440  0.83014202  0.51090681     0.13500
H159        H  0.57902340  0.83537496  0.46447215     0.16100
C160        C  0.51056254  0.84202846  0.51862737    -0.31500
H161        H  0.49295312  0.83032266  0.53803430     0.16200
H162        H  0.42972963  0.95783858  0.48571445     0.16200
H163        H  0.49377949  0.82424028  0.37161143     0.16200
H164        H  0.51797281  0.95901357  0.41091917     0.16200
C165        C  0.21880545  0.73914554  0.16052639     0.86500
C166        C  0.19794794  0.71276640  0.18420175    -0.53700
C167        C  0.22110842  0.69079078  0.20171104     0.09500
C168        C  0.26267000  0.69694586  0.19460526     0.20400
C169        C  0.24634601  0.75947362  0.18615525    -0.54400
C170        C  0.26886870  0.73719885  0.20422573     0.09600
C171        C  0.24385208  0.71457644  0.13631797    -0.54000
C172        C  0.26697585  0.69232171  0.15399962     0.10100
H173        H  0.16803460  0.71147807  0.18836816     0.14600
H174        H  0.28124171  0.67997011  0.21020058     0.00400
H175        H  0.24667508  0.78868977  0.19083136     0.14900
H176        H  0.24239009  0.71427559  0.10768579     0.14700
C177        C  0.76021373  0.70779620  0.71693303     0.86500
C178        C  0.78188795  0.68075892  0.69226248    -0.53700
C179        C  0.75978746  0.65623071  0.67374414     0.09500
C180        C  0.71746404  0.66061463  0.68150943     0.20400
C181        C  0.73196651  0.72470932  0.69214993    -0.54400
C182        C  0.70959922  0.70032575  0.67366006     0.09600
C183        C  0.73659314  0.68415078  0.74032913    -0.54000
C184        C  0.71417250  0.65961066  0.72220092     0.10100
H185        H  0.81167316  0.68169228  0.68716723     0.14600
H186        H  0.69926751  0.64080553  0.66638971     0.00400
H187        H  0.73044967  0.75361712  0.68876394     0.14900
H188        H  0.73633581  0.68765142  0.76900326     0.14700
C189        C  0.50832680  0.45912289  0.06288962     0.30000
C190        C  0.44771024  0.50443992  0.05876938     0.30000
C191        C  0.50871814  0.49333613  0.08767510    -0.06200
C192        C  0.50205069  0.47554489  0.02599633    -0.06900
C193        C  0.46948570  0.44231222  0.06975979    -0.06800
C194        C  0.47831950  0.51606979  0.08542371    -0.06200
C195        C  0.47072198  0.49891315  0.02423757    -0.06900
C196        C  0.43901943  0.46495036  0.06710780    -0.06800
C197        C  0.48913172  0.54951559  0.09999610    -0.32200
N198        N  0.52464671  0.54725835  0.11227118     0.14300
C199        C  0.53716351  0.51327913  0.10432500    -0.32200
H200        H  0.56586235  0.50468249  0.10750586     0.16200
C201        C  0.46728697  0.50821519  0.98961587    -0.31200
N202        N  0.49557471  0.49256571  0.97048198     0.13000
C203        C  0.51655952  0.47221047  0.99188194    -0.31200
C204        C  0.40785737  0.44620433  0.07801818    -0.31500
N205        N  0.41868256  0.41344251  0.08870679     0.13500
H206        H  0.37974425  0.45678777  0.08066976     0.16100
C207        C  0.45625377  0.41061516  0.08331932    -0.31500
H208        H  0.47304083  0.38781862  0.09030802     0.16200
H209        H  0.53909291  0.45482635  0.98258371     0.16200
H210        H  0.47316721  0.57427389  0.09957980     0.16200
H211        H  0.44487686  0.52344502  0.97845379     0.16200
C212        C  0.51732164  0.52783913  0.84392599     0.30000
C213        C  0.45817059  0.47962581  0.84115666     0.30000
C214        C  0.52031254  0.49549626  0.81653180    -0.06200
C215        C  0.50893170  0.50860793  0.87861442    -0.06900
C216        C  0.47821514  0.54358286  0.83432089    -0.06800
C217        C  0.49050133  0.47139664  0.81558490    -0.06200
C218        C  0.47857484  0.48405545  0.87716589    -0.06900
C219        C  0.44839859  0.51900909  0.83433791    -0.06800
C220        C  0.50072776  0.44128266  0.79498017    -0.32200
N221        N  0.53594887  0.44636853  0.78306491     0.14300
C222        C  0.54808966  0.47941494  0.79559750    -0.32200
H223        H  0.57613266  0.48948914  0.79137713     0.16200
C224        C  0.47166134  0.47498462  0.91148593    -0.31200
N225        N  0.49755216  0.49151467  0.93318891     0.13000
C226        C  0.52007062  0.51261388  0.91377580    -0.31200
C227        C  0.41730904  0.53530909  0.82070032    -0.31500
N228        N  0.42723759  0.56834864  0.81032293     0.13500
H229        H  0.39000271  0.52303385  0.81616033     0.16100
C230        C  0.46425859  0.57345207  0.81761883    -0.31500
H231        H  0.48008601  0.59564371  0.80776401     0.16200
H232        H  0.54099595  0.53130975  0.92470111     0.16200
H233        H  0.48514598  0.41609316  0.79179685     0.16200
H234        H  0.44799364  0.46000928  0.92088132     0.16200
C235        C  0.06794691  0.90997646  0.02054509     0.42500
N236        N  0.02931024  0.92249965  0.97966459     0.01400
C237        C  0.02667026  0.07721251  0.88483714    -0.06500
H238        H  0.00288160  0.09800924  0.01908287     0.06900
C239        C  0.88609462  0.02698809  0.00811453    -0.06800
Co240      Co  0.05107963  0.98910726  0.94371800     0.74200
N241        N  0.01821200  0.05257509  0.98421008    -0.26000
Co242      Co  0.97731029  0.04968029  0.94506077     0.74100
C243        C  0.89864971  0.06120898  0.02572568     0.42600
N244        N  0.91832433  0.94002198  0.98045983     0.01000
N245        N  0.93594813  0.04668391  0.98300302     0.01100
N246        N  0.07463474  0.03762126  0.88520282    -0.46900
H247        H  0.10431304  0.96012459  0.01069452     0.06900
N248        N  0.04620858  0.02943570  0.98410559     0.01400
N249        N  0.93584375  0.04495513  0.90607545     0.01100
C250        C  0.89705631  0.05591454  0.86473123     0.42700
N251        N  0.94625199  0.91677091  0.97998204    -0.25500
C252        C  0.07661951  0.94415791  0.87579599    -0.06400
N253        N  0.03673650  0.89838877  0.00314818    -0.46600
N254        N  0.92764717  0.06887074  0.88246695    -0.46800
C255        C  0.06469826  0.91024091  0.85732555     0.42500
N256        N  0.04769649  0.02882428  0.90714227     0.01400
N257        N  0.94637955  0.91464537  0.90283494    -0.25500
N258        N  0.05380040  0.94930845  0.98038308    -0.26000
N259        N  0.91751086  0.93675721  0.90348920     0.01000
H260        H  0.95886276  0.86546311  0.87258159     0.06900
H261        H  0.86255452  0.00454800  0.87481893     0.06900
N262        N  0.01942600  0.05162747  0.90751624    -0.26000
N263        N  0.91125024  0.02006611  0.98222654    -0.25700
N264        N  0.02923772  0.92117659  0.90238854     0.01400
C265        C  0.05522900  0.06424825  0.03051848     0.42800
C266        C  0.94098116  0.89414208  0.00610250    -0.06900
N267        N  0.91210927  0.01742287  0.90525480    -0.25600
H268        H  0.86139969  0.01093402  0.01294076     0.06900
N269        N  0.06912319  0.03551904  0.01132367    -0.46900
H270        H  0.95860826  0.87140474  0.01142647     0.06900
C271        C  0.90498343  0.89692840  0.86172936     0.42600
C272        C  0.07959967  0.94367395  0.00527143    -0.06400
Co273      Co  0.98786021  0.91800312  0.94121248     0.73800
N274        N  0.89378423  0.93461846  0.00571784    -0.46600
C275        C  0.06342985  0.06788504  0.87005035     0.42900
N276        N  0.03532451  0.89749891  0.87548478    -0.46600
Co277      Co  0.91393663  0.97848064  0.94279603     0.73900
C278        C  0.88674025  0.02178369  0.87988018    -0.06900
C279        C  0.02154589  0.07575350  0.01246808    -0.06500
N280        N  0.05311249  0.94858076  0.90325798    -0.26000
N281        N  0.92947797  0.07163901  0.00844570    -0.46800
H282        H  0.00990592  0.10109106  0.88181518     0.06900
C283        C  0.94125289  0.88893094  0.87714786    -0.06900
Cl284      Cl  0.98254317  0.98381499  0.94307397    -0.49900
C285        C  0.90600933  0.90615565  0.02316213     0.42600
H286        H  0.09986826  0.96184796  0.87035298     0.06900
N287        N  0.89161599  0.92676569  0.87964438    -0.46600
C288        C  0.76390317  0.81759967  0.79906463    -0.17800
C289        C  0.78375686  0.84471395  0.81861709    -0.20000
C290        C  0.82312809  0.84524818  0.81839982     0.20700
C291        C  0.84257663  0.81813020  0.79826330    -0.02900
C292        C  0.82256349  0.79087014  0.77856460    -0.05900
C293        C  0.78307177  0.79057857  0.77893545     0.21000
C294        C  0.84217141  0.76377708  0.75869397     0.19100
C295        C  0.88148867  0.76404498  0.75863758    -0.17400
C296        C  0.90129684  0.79100621  0.77806323    -0.19600
C297        C  0.88210105  0.81806274  0.79794085     0.20600
C298        C  0.90188582  0.84472870  0.81787227    -0.32700
C299        C  0.88291321  0.87143690  0.83852668     0.01300
C300        C  0.84347309  0.87197378  0.83831259    -0.24000
C301        C  0.76353647  0.76333229  0.75911148    -0.28600
C302        C  0.78283022  0.73639476  0.73857241     0.07000
C303        C  0.82234940  0.73675965  0.73915563    -0.27200
H304        H  0.73352827  0.81777375  0.79968313     0.11700
H305        H  0.76832418  0.86519288  0.83398165     0.12800
H306        H  0.89696260  0.74338628  0.74351771     0.11900
H307        H  0.93165746  0.79060623  0.77765882     0.11200
H308        H  0.93225741  0.84442944  0.81751673     0.16500
H309        H  0.82871394  0.89245547  0.85432434     0.12500
H310        H  0.73313146  0.76312700  0.75938954     0.15300
H311        H  0.83840673  0.71614526  0.72505019     0.15100
C312        C  0.65084926  0.53958465  0.81424537    -0.17800
C313        C  0.67681743  0.55599364  0.79228004    -0.20000
C314        C  0.66886697  0.58942123  0.77812845     0.20700
C315        C  0.63491809  0.60699008  0.78727514    -0.02900
C316        C  0.60903492  0.59065279  0.80978749    -0.05900
C317        C  0.61653843  0.55641340  0.82266156     0.21000
C318        C  0.57519844  0.60825543  0.81890150     0.19100
C319        C  0.56795137  0.64250874  0.80642736    -0.17400
C320        C  0.59322933  0.65843468  0.78366966    -0.19600
C321        C  0.62652846  0.64071641  0.77359502     0.20600
C322        C  0.65177045  0.65638828  0.75048604    -0.32700
C323        C  0.68558102  0.63918102  0.74126179     0.01300
C324        C  0.69421710  0.60582472  0.75530364    -0.24000
C325        C  0.58825777  0.53847045  0.84105895    -0.28600
C326        C  0.55182502  0.55315525  0.84370472     0.07000
C327        C  0.54799573  0.59017038  0.83809180    -0.27200
H328        H  0.65714733  0.51325480  0.82381782     0.11700
H329        H  0.70284126  0.54219781  0.78582514     0.12800
H330        H  0.54202883  0.65635028  0.81313457     0.11900
H331        H  0.58655952  0.68449945  0.77367582     0.11200
H332        H  0.64579147  0.68266332  0.74053378     0.16500
H333        H  0.72089438  0.59313987  0.74900793     0.12500
H334        H  0.59302200  0.51114678  0.84885632     0.15300
H335        H  0.52301439  0.60435431  0.84658094     0.15100
C336        C  0.09472349  0.78755670  0.12183485    -0.17800
C337        C  0.07398554  0.81170782  0.10262285    -0.20000
C338        C  0.09226183  0.83719414  0.08257172     0.20700
C339        C  0.13181109  0.83844935  0.08193922    -0.02900
C340        C  0.15272628  0.81386685  0.10113263    -0.05900
C341        C  0.13409598  0.78839271  0.12120625     0.21000
C342        C  0.19222235  0.81467103  0.10005512     0.19100
C343        C  0.21048907  0.84002817  0.07980379    -0.17400
C344        C  0.18979776  0.86456923  0.06095899    -0.19600
C345        C  0.15047526  0.86406437  0.06191673     0.20600
C346        C  0.12949142  0.88836331  0.04284389    -0.32700
C347        C  0.09013299  0.88671757  0.04288375     0.01300
C348        C  0.07171220  0.86115133  0.06281134    -0.24000
C349        C  0.15501454  0.76409486  0.14027765    -0.28600
C350        C  0.19467039  0.76476911  0.13983161     0.07000
C351        C  0.21279475  0.79016611  0.11923862    -0.27200
H352        H  0.07993903  0.76812941  0.13712120     0.11700
H353        H  0.04364293  0.81040436  0.10339722     0.12800
H354        H  0.24082101  0.84094386  0.07860054     0.11900
H355        H  0.20456569  0.88389015  0.04554781     0.11200
H356        H  0.14379843  0.90771493  0.02710361     0.16500
H357        H  0.04132906  0.85987939  0.06281546     0.12500
H358        H  0.13964935  0.74486021  0.15492974     0.15300
H359        H  0.24316364  0.79088775  0.11834993     0.15100
C360        C  0.34633163  0.64318804  0.05296267    -0.17800
C361        C  0.37047455  0.61619444  0.03863048    -0.20000
C362        C  0.37915059  0.58574091  0.05767535     0.20700
C363        C  0.36271798  0.58264323  0.09132172    -0.02900
C364        C  0.33864161  0.60977519  0.10576007    -0.05900
C365        C  0.33039360  0.64037402  0.08669211     0.21000
C366        C  0.32344612  0.60648866  0.13976994     0.19100
C367        C  0.33181855  0.57635879  0.15900141    -0.17400
C368        C  0.35579211  0.54988739  0.14496641    -0.19600
C369        C  0.37145723  0.55306008  0.11139670     0.20600
C370        C  0.39714886  0.52772691  0.09862274    -0.32700
C371        C  0.41426072  0.52973644  0.06524482     0.01300
C372        C  0.40492513  0.55909541  0.04461130    -0.24000
C373        C  0.30682133  0.66756938  0.10204402    -0.28600
C374        C  0.29177586  0.66430800  0.13631483     0.07000
C375        C  0.30037766  0.63343357  0.15449684    -0.27200
H376        H  0.34042947  0.66644550  0.03778623     0.11700
H377        H  0.38268666  0.61936929  0.01282950     0.12800
H378        H  0.32022901  0.57350888  0.18515289     0.11900
H379        H  0.36243558  0.52711022  0.16055540     0.11200
H380        H  0.40593817  0.50735569  0.11629510     0.16500
H381        H  0.41909128  0.56263639  0.01988125     0.12500
H382        H  0.30085832  0.69133329  0.08764872     0.15300
H383        H  0.28904810  0.62969620  0.18037001     0.15100
C384        C  0.55945216  0.74905539  0.60936482    -0.17800
C385        C  0.58242433  0.73045087  0.63220818    -0.20000
C386        C  0.62134536  0.72895567  0.62688881     0.20700
C387        C  0.63711362  0.74604199  0.59789605    -0.02900
C388        C  0.61391781  0.76492091  0.57493742    -0.05900
C389        C  0.57495143  0.76665228  0.58083070     0.21000
C390        C  0.62989735  0.78286037  0.54668340     0.19100
C391        C  0.66875559  0.78115761  0.54110739    -0.17400
C392        C  0.69170763  0.76248490  0.56376537    -0.19600
C393        C  0.67622545  0.74522642  0.59243115     0.20600
C394        C  0.69932581  0.72830887  0.61642479    -0.32700
C395        C  0.68398556  0.71213500  0.64582428     0.01300
C396        C  0.64494244  0.71180706  0.65061925    -0.24000
C397        C  0.55228790  0.78669009  0.55871601    -0.28600
C398        C  0.56805389  0.80582003  0.53101155     0.07000
C399        C  0.60702915  0.80312019  0.52510180    -0.27200
H400        H  0.52955752  0.75013438  0.61435356     0.11700
H401        H  0.56979066  0.71762231  0.65431278     0.12800
H402        H  0.68149471  0.79473198  0.51949140     0.11900
H403        H  0.72168853  0.76205121  0.55920441     0.11200
H404        H  0.72950871  0.72879656  0.61301618     0.16500
H405        H  0.63322325  0.69975551  0.67361360     0.12500
H406        H  0.52251102  0.78772400  0.56379937     0.15300
H407        H  0.62011964  0.81792011  0.50455406     0.15100
C408        C  0.37593771  0.81033912  0.25051497    -0.17800
C409        C  0.40120732  0.81982903  0.27770539    -0.20000
C410        C  0.39798048  0.80457119  0.31064456     0.20700
C411        C  0.36919719  0.77939047  0.31639640    -0.02900
C412        C  0.34380777  0.76961083  0.28884228    -0.05900
C413        C  0.34712767  0.78532762  0.25579112     0.21000
C414        C  0.31511559  0.74421206  0.29435510     0.19100
C415        C  0.31179365  0.72915446  0.32744567    -0.17400
C416        C  0.33672162  0.73922271  0.35493589    -0.19600
C417        C  0.36555099  0.76434204  0.34972436     0.20600
C418        C  0.39045339  0.77515423  0.37725852    -0.32700
C419        C  0.41909871  0.80045496  0.37158293     0.01300
C420        C  0.42269867  0.81470310  0.33807972    -0.24000
C421        C  0.32178231  0.77556416  0.22851266    -0.28600
C422        C  0.29377250  0.74973237  0.23365262     0.07000
C423        C  0.29045952  0.73421681  0.26657949    -0.27200
H424        H  0.37894475  0.82255329  0.22534014     0.11700
H425        H  0.42320092  0.83929386  0.27302381     0.12800
H426        H  0.28982921  0.70964607  0.33209292     0.11900
H427        H  0.33342786  0.72738875  0.38027658     0.11200
H428        H  0.38745965  0.76425143  0.40307252     0.16500
H429        H  0.44392971  0.83498050  0.33368444     0.12500
H430        H  0.32441745  0.78722695  0.20299835     0.15300
H431        H  0.26859279  0.71438123  0.27052337     0.15100
C432        C  0.86717646  0.16769522  0.80362731    -0.17800
C433        C  0.84435267  0.18611927  0.78046317    -0.20000
C434        C  0.81401726  0.16839836  0.76311226     0.20700
C435        C  0.80665463  0.13182760  0.76931344    -0.02900
C436        C  0.82956388  0.11329107  0.79263584    -0.05900
C437        C  0.86004739  0.13123307  0.80988761     0.21000
C438        C  0.82176471  0.07678410  0.79878713     0.19100
C439        C  0.79126212  0.05914493  0.78189203    -0.17400
C440        C  0.76846665  0.07755541  0.75909434    -0.19600
C441        C  0.77600681  0.11379793  0.75262553     0.20600
C442        C  0.75302173  0.13219737  0.72993435    -0.32700
C443        C  0.76066382  0.16831118  0.72217648     0.01300
C444        C  0.79084500  0.18647843  0.73977742    -0.24000
C445        C  0.88254039  0.11237891  0.83320476    -0.28600
C446        C  0.87464206  0.07594434  0.83945058     0.07000
C447        C  0.84436473  0.05843744  0.82190263    -0.27200
H448        H  0.89038298  0.18198814  0.81668309     0.11700
H449        H  0.85044328  0.21422383  0.77611116     0.12800
H450        H  0.78492459  0.03113257  0.78643752     0.11900
H451        H  0.74495731  0.06338263  0.74642370     0.11200
H452        H  0.72851525  0.11810920  0.71949239     0.16500
H453        H  0.79621740  0.21470271  0.73532183     0.12500
H454        H  0.90583319  0.12610314  0.84671058     0.15300
H455        H  0.83816497  0.03036196  0.82613496     0.15100
C456        C  0.55398521  0.34241343  0.69914076    -0.17800
C457        C  0.57447478  0.31179397  0.68785479    -0.20000
C458        C  0.60804881  0.30338885  0.70487184     0.20700
C459        C  0.62140774  0.32632864  0.73319596    -0.02900
C460        C  0.60097644  0.35738823  0.74433071    -0.05900
C461        C  0.56687397  0.36523521  0.72747270     0.21000
C462        C  0.61443249  0.38030074  0.77265036     0.19100
C463        C  0.64808840  0.37204333  0.78953642    -0.17400
C464        C  0.66827468  0.34121680  0.77854955    -0.19600
C465        C  0.65511314  0.31818192  0.75052446     0.20600
C466        C  0.67525966  0.28731043  0.73938128    -0.32700
C467        C  0.66225335  0.26437132  0.71110979     0.01300
C468        C  0.62854750  0.27252402  0.69404572    -0.24000
C469        C  0.54597475  0.39536491  0.73972590    -0.28600
C470        C  0.55915221  0.41800485  0.76808629     0.07000
C471        C  0.59361298  0.41066651  0.78406350    -0.27200
H472        H  0.52796185  0.34813445  0.68583979     0.11700
H473        H  0.56392640  0.29454979  0.66596625     0.12800
H474        H  0.65868843  0.38932290  0.81136944     0.11900
H475        H  0.69416788  0.33533619  0.79204822     0.11200
H476        H  0.70170502  0.28179154  0.75209787     0.16500
H477        H  0.61819636  0.25483720  0.67239750     0.12500
H478        H  0.51926517  0.40108513  0.72765180     0.15300
H479        H  0.60333582  0.42781695  0.80639224     0.15100
C480        C  0.79042530  0.90142769  0.09335065    -0.17800
C481        C  0.76753984  0.88483014  0.11767502    -0.20000
C482        C  0.77911730  0.85302368  0.13287308     0.20700
C483        C  0.81375517  0.83738957  0.12290741    -0.02900
C484        C  0.83676494  0.85398046  0.09808520    -0.05900
C485        C  0.82513537  0.88634037  0.08360540     0.21000
C486        C  0.87140896  0.83832761  0.08792267     0.19100
C487        C  0.88232223  0.80583017  0.10224199    -0.17400
C488        C  0.85946902  0.78936689  0.12682093    -0.19600
C489        C  0.82533996  0.80516440  0.13763777     0.20600
C490        C  0.80273384  0.78936586  0.16301089    -0.32700
C491        C  0.76886776  0.80572809  0.17461070     0.01300
C492        C  0.75672690  0.83679085  0.15802673    -0.24000
C493        C  0.84833144  0.90311792  0.05960815    -0.28600
C494        C  0.88298033  0.88794690  0.04941874     0.07000
C495        C  0.89439429  0.85545924  0.06365721    -0.27200
H496        H  0.78102532  0.92616248  0.08225030     0.11700
H497        H  0.74093858  0.89711571  0.12490601     0.12800
H498        H  0.90865878  0.79323861  0.09459648     0.11900
H499        H  0.86869043  0.76444495  0.13765708     0.11200
H500        H  0.81152142  0.76402971  0.17307702     0.16500
H501        H  0.72977832  0.84856004  0.16481736     0.12500
H502        H  0.83920610  0.92807339  0.04872141     0.15300
H503        H  0.92096256  0.84344536  0.05585864     0.15100
C504        C  0.63409478  0.62697233  0.21587286    -0.17800
C505        C  0.61181249  0.59825168  0.20219849    -0.20000
C506        C  0.59070958  0.60175081  0.17128965     0.20700
C507        C  0.59199899  0.63456140  0.15400784    -0.02900
C508        C  0.61497667  0.66332228  0.16747905    -0.05900
C509        C  0.63595744  0.65954491  0.19866639     0.21000
C510        C  0.61727716  0.69566172  0.14951564     0.19100
C511        C  0.59617556  0.69914656  0.11859588    -0.17400
C512        C  0.57284319  0.67091713  0.10562249    -0.19600
C513        C  0.57061635  0.63852554  0.12308079     0.20600
C514        C  0.54775661  0.60987197  0.10994551    -0.32700
C515        C  0.54695347  0.57694598  0.12666298     0.01300
C516        C  0.56854418  0.57298227  0.15720654    -0.24000
C517        C  0.65894778  0.68813649  0.21173602    -0.28600
C518        C  0.66192794  0.72015966  0.19362604     0.07000
C519        C  0.64094016  0.72375675  0.16257061    -0.27200
H520        H  0.65015372  0.62358934  0.23976146     0.11700
H521        H  0.61109605  0.57328380  0.21580003     0.12800
H522        H  0.59768029  0.72376302  0.10444420     0.11900
H523        H  0.55676887  0.67430685  0.08175986     0.11200
H524        H  0.53134719  0.61270173  0.08616417     0.16500
H525        H  0.56766394  0.54757963  0.17008140     0.12500
H526        H  0.67565454  0.68488185  0.23527031     0.15300
H527        H  0.64310010  0.74844065  0.14856566     0.15100
C528        C  0.65009824  0.86629622  0.39514085    -0.17800
C529        C  0.67516066  0.85259061  0.36939498    -0.20000
C530        C  0.66312793  0.84522399  0.33441313     0.20700
C531        C  0.62597946  0.85351554  0.32489705    -0.02900
C532        C  0.60062945  0.86696309  0.35097140    -0.05900
C533        C  0.61247947  0.87237496  0.38640419     0.21000
C534        C  0.56305004  0.87363367  0.34187557     0.19100
C535        C  0.55161914  0.86871118  0.30644322    -0.17400
C536        C  0.57671309  0.85535285  0.28056092    -0.19600
C537        C  0.61364777  0.84679010  0.28968532     0.20600
C538        C  0.63803339  0.83037867  0.26461639    -0.32700
C539        C  0.67432930  0.82049078  0.27445824     0.01300
C540        C  0.68708069  0.82858994  0.30907141    -0.24000
C541        C  0.58600890  0.88133412  0.41279143    -0.28600
C542        C  0.54747091  0.88202888  0.40459202     0.07000
C543        C  0.53702836  0.88250889  0.36869778    -0.27200
H544        H  0.65973606  0.87060024  0.42219617     0.11700
H545        H  0.70368677  0.84681335  0.37706130     0.12800
H546        H  0.52288423  0.87384730  0.29897582     0.11900
H547        H  0.56689931  0.85068099  0.25359524     0.11200
H548        H  0.62846981  0.82413907  0.23776087     0.16500
H549        H  0.71522377  0.82097166  0.31641451     0.12500
H550        H  0.59545915  0.88611953  0.43976365     0.15300
H551        H  0.50788733  0.88641472  0.36179041     0.15100
C552        C  0.84110705  0.52309388  0.60339608    -0.17800
C553        C  0.82055664  0.54258053  0.62955181    -0.20000
C554        C  0.80865799  0.57799176  0.62427823     0.20700
C555        C  0.81882515  0.59430368  0.59280089    -0.02900
C556        C  0.83945521  0.57458254  0.56642674    -0.05900
C557        C  0.84985976  0.53857425  0.57136897     0.21000
C558        C  0.84918713  0.59066838  0.53479578     0.19100
C559        C  0.83973313  0.62689349  0.53045679    -0.17400
C560        C  0.81919561  0.64643651  0.55649108    -0.19600
C561        C  0.80803777  0.63018796  0.58744238     0.20600
C562        C  0.78672204  0.64932148  0.61330341    -0.32700
C563        C  0.77615080  0.63319523  0.64453259     0.01300
C564        C  0.78726593  0.59758157  0.64999027    -0.24000
C565        C  0.86643484  0.51801601  0.54325432    -0.28600
C566        C  0.86911733  0.53182846  0.50933728     0.07000
C567        C  0.86572074  0.56949862  0.50711576    -0.27200
H568        H  0.84902258  0.49547347  0.60772509     0.11700
H569        H  0.81349388  0.52974678  0.65370774     0.12800
H570        H  0.84708103  0.63973512  0.50638512     0.11900
H571        H  0.81155352  0.67412977  0.55217690     0.11200
H572        H  0.77918135  0.67721819  0.60969642     0.16500
H573        H  0.78021511  0.58563913  0.67463524     0.12500
H574        H  0.87484046  0.49052902  0.54721127     0.15300
H575        H  0.87319169  0.58185162  0.48287926     0.15100
C576        C  0.73123766  0.37613527  0.57727235    -0.17800
C577        C  0.71902888  0.35027935  0.60029520    -0.20000
C578        C  0.73691691  0.31663712  0.60083323     0.20700
C579        C  0.76657165  0.30845076  0.57718681    -0.02900
C580        C  0.77864118  0.33439498  0.55373774    -0.05900
C581        C  0.76144780  0.36869980  0.55438437     0.21000
C582        C  0.80868259  0.32641077  0.53045734     0.19100
C583        C  0.82570129  0.29231038  0.53015954    -0.17400
C584        C  0.81391194  0.26669267  0.55359568    -0.19600
C585        C  0.78479335  0.27468215  0.57755227     0.20600
C586        C  0.77382454  0.24968112  0.60208770    -0.32700
C587        C  0.74455695  0.25785571  0.62582361     0.01300
C588        C  0.72601582  0.29120628  0.62488902    -0.24000
C589        C  0.77564568  0.39532936  0.53304530    -0.28600
C590        C  0.80646164  0.38792253  0.51085214     0.07000
C591        C  0.82207165  0.35311604  0.50882962    -0.27200
H592        H  0.71752094  0.40219734  0.57784722     0.11700
H593        H  0.69602355  0.35683258  0.61812489     0.12800
H594        H  0.84866492  0.28573818  0.51232624     0.11900
H595        H  0.82794585  0.24077664  0.55331527     0.11200
H596        H  0.78767749  0.22369900  0.60246596     0.16500
H597        H  0.70351558  0.29761814  0.64336294     0.12500
H598        H  0.76329258  0.42204083  0.53409242     0.15300
H599        H  0.84586811  0.34749610  0.49170418     0.15100
C600        C  0.73472129  0.68761495  0.36420036    -0.17800
C601        C  0.74527773  0.65924331  0.38513667    -0.20000
C602        C  0.76818001  0.63114543  0.37127200     0.20700
C603        C  0.78012689  0.63155808  0.33577071    -0.02900
C604        C  0.76986509  0.66036042  0.31479070    -0.05900
C605        C  0.74704136  0.68857039  0.32903985     0.21000
C606        C  0.78264563  0.66095543  0.27957205     0.19100
C607        C  0.80471478  0.63251957  0.26535977    -0.17400
C608        C  0.81461353  0.60395070  0.28600194    -0.19600
C609        C  0.80276202  0.60341032  0.32126670     0.20600
C610        C  0.81383331  0.57547957  0.34234707    -0.32700
C611        C  0.80292106  0.57500417  0.37804488     0.01300
C612        C  0.77976519  0.60292486  0.39226715    -0.24000
C613        C  0.73702315  0.71709314  0.30782136    -0.28600
C614        C  0.75031793  0.71801890  0.27290288     0.07000
C615        C  0.77309994  0.68987309  0.25906445    -0.27200
H616        H  0.71712713  0.70896042  0.37560489     0.11700
H617        H  0.73566005  0.65938210  0.41226376     0.12800
H618        H  0.81448611  0.63245435  0.23828891     0.11900
H619        H  0.83189950  0.58241870  0.27446339     0.11200
H620        H  0.83220139  0.55470930  0.33111694     0.16500
H621        H  0.77087696  0.60271106  0.41958682     0.12500
H622        H  0.71925443  0.73869976  0.31848485     0.15300
H623        H  0.78265594  0.69005961  0.23191643     0.15100
C624        C  0.12659044  0.21314258  0.82237340    -0.17800
C625        C  0.10124570  0.19009168  0.83805298    -0.20000
C626        C  0.10794677  0.15277327  0.83742192     0.20700
C627        C  0.14070267  0.13854269  0.82123740    -0.02900
C628        C  0.16602156  0.16176472  0.80502285    -0.05900
C629        C  0.15880361  0.19915669  0.80557777     0.21000
C630        C  0.19827546  0.14753983  0.78796396     0.19100
C631        C  0.20550950  0.11031757  0.78825503    -0.17400
C632        C  0.18062647  0.08730372  0.80475124    -0.19600
C633        C  0.14798835  0.10111775  0.82099670     0.20600
C634        C  0.12243206  0.07820158  0.83690902    -0.32700
C635        C  0.08950057  0.09218311  0.85258201     0.01300
C636        C  0.08243157  0.12947622  0.85271426    -0.24000
C637        C  0.18337560  0.22189116  0.78856602    -0.28600
C638        C  0.21436848  0.20787126  0.76947320     0.07000
C639        C  0.22226969  0.17062131  0.77028665    -0.27200
H640        H  0.12072395  0.24185412  0.82294772     0.11700
H641        H  0.07633796  0.20142815  0.85054568     0.12800
H642        H  0.23024864  0.09893789  0.77544086     0.11900
H643        H  0.18669539  0.05865945  0.80446866     0.11200
H644        H  0.12800302  0.04945379  0.83689982     0.16500
H645        H  0.05746527  0.14059983  0.86521718     0.12500
H646        H  0.17749688  0.25061117  0.78879875     0.15300
H647        H  0.24659545  0.15906886  0.75722929     0.15100
C648        C  0.36740477  0.43041440  0.75318325    -0.17800
C649        C  0.34134130  0.40456034  0.74082468    -0.20000
C650        C  0.33124081  0.37606116  0.76176962     0.20700
C651        C  0.34704943  0.37380958  0.79570572    -0.02900
C652        C  0.37295362  0.40034009  0.80847227    -0.05900
C653        C  0.38328778  0.42839154  0.78688420     0.21000
C654        C  0.38938734  0.39817035  0.84223406     0.19100
C655        C  0.37935954  0.36934620  0.86295801    -0.17400
C656        C  0.35368895  0.34287414  0.85021491    -0.19600
C657        C  0.33757350  0.34473066  0.81648360     0.20600
C658        C  0.31306515  0.31755547  0.80271531    -0.32700
C659        C  0.29761650  0.31933652  0.76848155     0.01300
C660        C  0.30624312  0.34940442  0.74885663    -0.24000
C661        C  0.41002258  0.45362530  0.79884821    -0.28600
C662        C  0.42627928  0.45274493  0.83278318     0.07000
C663        C  0.41612418  0.42432226  0.85417852    -0.27200
H664        H  0.37523086  0.45194032  0.73637323     0.11700
H665        H  0.32947971  0.40654475  0.71455961     0.12800
H666        H  0.39164218  0.36707926  0.88895011     0.11900
H667        H  0.34674052  0.32074771  0.86659162     0.11200
H668        H  0.30728609  0.29454669  0.81828708     0.16500
H669        H  0.29405431  0.35235405  0.72307302     0.12500
H670        H  0.41935246  0.47362566  0.78088722     0.15300
H671        H  0.43008107  0.42106429  0.87904499     0.15100
C672        C  0.89876898  0.17333401  0.10009164    -0.17800
C673        C  0.87973853  0.20229359  0.11685080    -0.20000
C674        C  0.84047690  0.20195858  0.11876876     0.20700
C675        C  0.82014773  0.17223737  0.10348774    -0.02900
C676        C  0.83935490  0.14300335  0.08642482    -0.05900
C677        C  0.87882349  0.14372984  0.08471763     0.21000
C678        C  0.81911922  0.11337824  0.07064399     0.19100
C679        C  0.77981170  0.11322046  0.07244804    -0.17400
C680        C  0.76076482  0.14221682  0.08949364    -0.19600
C681        C  0.78070634  0.17186384  0.10502400     0.20600
C682        C  0.76199082  0.20082582  0.12262270    -0.32700
C683        C  0.78210297  0.22979077  0.13976255     0.01300
C684        C  0.82141595  0.23063508  0.13627000    -0.24000
C685        C  0.89770386  0.11544589  0.06663683    -0.28600
C686        C  0.87781934  0.08663395  0.04959013     0.07000
C687        C  0.83855700  0.08512665  0.05243197    -0.27200
H688        H  0.92910874  0.17425018  0.09886217     0.11700
H689        H  0.89576518  0.22489853  0.12847643     0.12800
H690        H  0.76377928  0.09078779  0.06046456     0.11900
H691        H  0.73042518  0.14144706  0.09054543     0.11200
H692        H  0.73164839  0.20024185  0.12421819     0.16500
H693        H  0.83777887  0.25320275  0.14706764     0.12500
H694        H  0.92802350  0.11652807  0.06467226     0.15300
H695        H  0.82308882  0.06303354  0.03914697     0.15100
C696        C  0.56458160  0.39150326  0.15748750    -0.17800
C697        C  0.59251486  0.37031826  0.17151436    -0.20000
C698        C  0.62363087  0.35971975  0.15100786     0.20700
C699        C  0.62642877  0.37027794  0.11584814    -0.02900
C700        C  0.59775024  0.39129852  0.10141245    -0.05900
C701        C  0.56706638  0.40206035  0.12257466     0.21000
C702        C  0.59990820  0.40182463  0.06612304     0.19100
C703        C  0.63125469  0.39110062  0.04574814    -0.17400
C704        C  0.65992507  0.37049639  0.06018294    -0.19600
C705        C  0.65778773  0.35989982  0.09525023     0.20600
C706        C  0.68627257  0.33913792  0.11013052    -0.32700
C707        C  0.68347249  0.32810077  0.14527070     0.01300
C708        C  0.65177357  0.33861494  0.16522014    -0.24000
C709        C  0.53933145  0.42352917  0.10880330    -0.28600
C710        C  0.54022594  0.43413540  0.07352635     0.07000
C711        C  0.57095622  0.42309369  0.05218960    -0.27200
H712        H  0.54093975  0.39959290  0.17396398     0.11700
H713        H  0.58988816  0.36241141  0.19852287     0.12800
H714        H  0.63371671  0.39879035  0.01866708     0.11900
H715        H  0.68377690  0.36277136  0.04384285     0.11200
H716        H  0.71060599  0.33180602  0.09431458     0.16500
H717        H  0.64823255  0.32984345  0.19176082     0.12500
H718        H  0.51660426  0.43254502  0.12605824     0.15300
H719        H  0.57304219  0.43146551  0.02547304     0.15100
C720        C  0.75006732  0.37383663  0.32372458    -0.17800
C721        C  0.76484703  0.39488836  0.35206171    -0.20000
C722        C  0.80264432  0.40547947  0.35213540     0.20700
C723        C  0.82587705  0.39536691  0.32346614    -0.02900
C724        C  0.81052218  0.37497047  0.29412842    -0.05900
C725        C  0.77260282  0.36382870  0.29461503     0.21000
C726        C  0.83292641  0.36570948  0.26449135     0.19100
C727        C  0.87073515  0.37696775  0.26468447    -0.17400
C728        C  0.88618345  0.39667656  0.29417082    -0.19600
C729        C  0.86408044  0.40600554  0.32398303     0.20600
C730        C  0.87902566  0.42599223  0.35404808    -0.32700
C731        C  0.85555877  0.43611552  0.38289138     0.01300
C732        C  0.81719682  0.42638479  0.38051131    -0.24000
C733        C  0.75762557  0.34264073  0.26624124    -0.28600
C734        C  0.77922948  0.33317288  0.23620271     0.07000
C735        C  0.81705343  0.34529015  0.23545483    -0.27200
H736        H  0.72088376  0.36562350  0.32445833     0.11700
H737        H  0.74676108  0.40260377  0.37414085     0.12800
H738        H  0.88849039  0.37025599  0.24212581     0.11900
H739        H  0.91542751  0.40470060  0.29358641     0.11200
H740        H  0.90806161  0.43450315  0.35425881     0.16500
H741        H  0.79803102  0.43557188  0.40126931     0.12500
H742        H  0.72917839  0.33282067  0.26840203     0.15300
H743        H  0.83429165  0.33878525  0.21251191     0.15100
C744        C  0.57385696  0.11275592  0.61492987    -0.17800
C745        C  0.55161373  0.09698630  0.58769173    -0.20000
C746        C  0.56349510  0.09739324  0.55240136     0.20700
C747        C  0.59896527  0.11188816  0.54466770    -0.02900
C748        C  0.62117045  0.12814884  0.57196630    -0.05900
C749        C  0.60816362  0.12929201  0.60720782     0.21000
C750        C  0.65572938  0.14443944  0.56377095     0.19100
C751        C  0.66886651  0.14219505  0.52884153    -0.17400
C752        C  0.64709275  0.12543177  0.50186590    -0.19600
C753        C  0.61156439  0.11140537  0.50939190     0.20600
C754        C  0.58727548  0.09952952  0.48204758    -0.32700
C755        C  0.54938576  0.09276065  0.48926424     0.01300
C756        C  0.53928776  0.08676145  0.52448580    -0.24000
C757        C  0.62943146  0.14752044  0.63385998    -0.28600
C758        C  0.66293151  0.16497548  0.62536429     0.07000
C759        C  0.67623388  0.16310565  0.59056787    -0.27200
H760        H  0.56369102  0.11302472  0.64188615     0.11700
H761        H  0.52450375  0.08576384  0.59408189     0.12800
H762        H  0.69559292  0.15411225  0.52226734     0.11900
H763        H  0.65721346  0.12507908  0.47490196     0.11200
H764        H  0.59771650  0.09708662  0.45546006     0.16500
H765        H  0.51090098  0.07836635  0.53033054     0.12500
H766        H  0.61983405  0.14861100  0.66105053     0.15300
H767        H  0.70265986  0.17600334  0.58453977     0.15100
C768        C  0.34471204  0.23591543  0.55098227    -0.17800
C769        C  0.32214141  0.24813225  0.57931670    -0.20000
C770        C  0.32925464  0.23711158  0.61353655     0.20700
C771        C  0.35997856  0.21439940  0.61951116    -0.02900
C772        C  0.38302691  0.20253961  0.59104875    -0.05900
C773        C  0.37494739  0.21278102  0.55650165     0.21000
C774        C  0.41340042  0.17945955  0.59702023     0.19100
C775        C  0.42098344  0.16901600  0.63133974    -0.17400
C776        C  0.39785296  0.18037483  0.65946804    -0.19600
C777        C  0.36700985  0.20259940  0.65373361     0.20600
C778        C  0.34255456  0.21250416  0.68141878    -0.32700
C779        C  0.31171436  0.23459141  0.67540407     0.01300
C780        C  0.30559640  0.24749699  0.64171348    -0.24000
C781        C  0.39659286  0.19887261  0.52802221    -0.28600
C782        C  0.42624386  0.17497109  0.53369573     0.07000
C783        C  0.43488248  0.16609090  0.56842840    -0.27200
H784        H  0.33819775  0.24415136  0.52466825     0.11700
H785        H  0.29866525  0.26559531  0.57434984     0.12800
H786        H  0.44433068  0.15138423  0.63629148     0.11900
H787        H  0.40375380  0.17132854  0.68560566     0.11200
H788        H  0.34730879  0.20296505  0.70759374     0.16500
H789        H  0.28154689  0.26442488  0.63716487     0.12500
H790        H  0.39006627  0.20617595  0.50141098     0.15300
H791        H  0.45718999  0.14724687  0.57316570     0.15100
C792        C  0.69515009  0.18878019  0.31213396    -0.17800
C793        C  0.67162963  0.17031542  0.33462124    -0.20000
C794        C  0.63250061  0.17301755  0.33177781     0.20700
C795        C  0.61691443  0.19467464  0.30611281    -0.02900
C796        C  0.64071982  0.21352694  0.28344945    -0.05900
C797        C  0.67999766  0.21033284  0.28639876     0.21000
C798        C  0.62524314  0.23513813  0.25757709     0.19100
C799        C  0.58609092  0.23756002  0.25463508    -0.17400
C800        C  0.56253328  0.21884453  0.27705913    -0.19600
C801        C  0.57760945  0.19734437  0.30296156     0.20600
C802        C  0.55413728  0.17873115  0.32588584    -0.32700
C803        C  0.56943323  0.15737225  0.35205395     0.01300
C804        C  0.60881616  0.15443882  0.35423840    -0.24000
C805        C  0.70341699  0.22801549  0.26303362    -0.28600
C806        C  0.68825399  0.24911877  0.23683530     0.07000
C807        C  0.64917096  0.25312690  0.23460313    -0.27200
H808        H  0.72524015  0.18603192  0.31475184     0.11700
H809        H  0.68407614  0.15382654  0.35422538     0.12800
H810        H  0.57364654  0.25382964  0.23485119     0.11900
H811        H  0.53244469  0.22121927  0.27413512     0.11200
H812        H  0.52405433  0.18153471  0.32370799     0.16500
H813        H  0.62127749  0.13743712  0.37333857     0.12500
H814        H  0.73355817  0.22471394  0.26459639     0.15300
H815        H  0.63741426  0.26876999  0.21398222     0.15100
C816        C  0.16006193  0.90510387  0.76286626    -0.17800
C817        C  0.18044646  0.88556902  0.73684145    -0.20000
C818        C  0.17243433  0.84888583  0.72871592     0.20700
C819        C  0.14348957  0.83173263  0.74687221    -0.02900
C820        C  0.12295821  0.85143150  0.77328470    -0.05900
C821        C  0.13145234  0.88824440  0.78138167     0.21000
C822        C  0.09444948  0.83415593  0.79199843     0.19100
C823        C  0.08661992  0.79739301  0.78397161    -0.17400
C824        C  0.10713925  0.77783030  0.75792659    -0.19600
C825        C  0.13573099  0.79472996  0.73932403     0.20600
C826        C  0.15717008  0.77513840  0.71384103    -0.32700
C827        C  0.18598661  0.79203594  0.69511422     0.01300
C828        C  0.19351022  0.82903191  0.70328030    -0.24000
C829        C  0.11174680  0.90741193  0.80831568    -0.28600
C830        C  0.08374340  0.89029507  0.82752850     0.07000
C831        C  0.07483852  0.85377389  0.81883704    -0.27200
H832        H  0.16695878  0.93333601  0.76878221     0.11700
H833        H  0.20266912  0.89914040  0.72318549     0.12800
H834        H  0.06486963  0.78365840  0.79810161     0.11900
H835        H  0.10079727  0.74940692  0.75249054     0.11200
H836        H  0.15191320  0.74642096  0.70903582     0.16500
H837        H  0.21669042  0.84255509  0.69129071     0.12500
H838        H  0.11855760  0.93560983  0.81449175     0.15300
H839        H  0.05325565  0.84037437  0.83350067     0.15100
C840        C  0.33898615  0.58257019  0.71236181    -0.17800
C841        C  0.31710031  0.60455124  0.69165873    -0.20000
C842        C  0.31549560  0.64204864  0.69933115     0.20700
C843        C  0.33654997  0.65753035  0.72804834    -0.02900
C844        C  0.35910307  0.63539055  0.74865828    -0.05900
C845        C  0.36005614  0.59769741  0.74090442     0.21000
C846        C  0.38051642  0.65094377  0.77708934     0.19100
C847        C  0.37868535  0.68840100  0.78496237    -0.17400
C848        C  0.35585123  0.71021180  0.76496076    -0.19600
C849        C  0.33469459  0.69505093  0.73647598     0.20600
C850        C  0.31108675  0.71660335  0.71679344    -0.32700
C851        C  0.28934478  0.70131868  0.68858514     0.01300
C852        C  0.29242790  0.66414721  0.67947763    -0.24000
C853        C  0.38214011  0.57581442  0.76171574    -0.28600
C854        C  0.40409780  0.59112963  0.78968719     0.07000
C855        C  0.40327943  0.62876355  0.79711022    -0.27200
H856        H  0.33946353  0.55368164  0.70600608     0.11700
H857        H  0.30107311  0.59213330  0.66983535     0.12800
H858        H  0.39476175  0.70082083  0.80674146     0.11900
H859        H  0.35468390  0.73899830  0.77183241     0.11200
H860        H  0.30903613  0.74533432  0.72382180     0.16500
H861        H  0.27543327  0.65210585  0.65817359     0.12500
H862        H  0.38295363  0.54686256  0.75571661     0.15300
H863        H  0.41994305  0.64055967  0.81880106     0.15100
C864        C  0.41274431  0.84112485  0.59745727    -0.17800
C865        C  0.38644595  0.82115113  0.61586940    -0.20000
C866        C  0.35157977  0.81180352  0.60055467     0.20700
C867        C  0.34292348  0.82333035  0.56658403    -0.02900
C868        C  0.36965944  0.84319836  0.54788059    -0.05900
C869        C  0.40483488  0.85176210  0.56321267     0.21000
C870        C  0.36139846  0.85414540  0.51365562     0.19100
C871        C  0.32592392  0.84628760  0.49895788    -0.17400
C872        C  0.29931259  0.82685296  0.51754917    -0.19600
C873        C  0.30766733  0.81482325  0.55117589     0.20600
C874        C  0.28130539  0.79483774  0.56982631    -0.32700
C875        C  0.28991112  0.78298790  0.60348706     0.01300
C876        C  0.32504532  0.79157925  0.61871694    -0.24000
C877        C  0.43220290  0.86894218  0.54326363    -0.28600
C878        C  0.42652244  0.87382659  0.50693686     0.07000
C879        C  0.38954851  0.87055755  0.49387891    -0.27200
H880        H  0.43970242  0.84736380  0.60961813     0.11700
H881        H  0.39349682  0.81278069  0.64201477     0.12800
H882        H  0.31904711  0.85444393  0.47271555     0.11900
H883        H  0.27231496  0.82082092  0.50539714     0.11200
H884        H  0.25379749  0.78912092  0.55857148     0.16500
H885        H  0.33118540  0.78340898  0.64516336     0.12500
H886        H  0.45857842  0.87662230  0.55568260     0.15300
H887        H  0.38363444  0.87746628  0.46702716     0.15100
C888        C  0.20817382  0.39729693  0.65482463    -0.17800
C889        C  0.19292602  0.41825332  0.62891026    -0.20000
C890        C  0.16981787  0.40227734  0.60233350     0.20700
C891        C  0.16164373  0.36493628  0.60196836    -0.02900
C892        C  0.17698778  0.34380491  0.62810017    -0.05900
C893        C  0.20055347  0.36008097  0.65446940     0.21000
C894        C  0.16912431  0.30635618  0.62760619     0.19100
C895        C  0.14586015  0.29045620  0.60111241    -0.17400
C896        C  0.13069919  0.31143664  0.57511137    -0.19600
C897        C  0.13855068  0.34861717  0.57524903     0.20600
C898        C  0.12404035  0.36968969  0.54893831    -0.32700
C899        C  0.13244372  0.40680966  0.54888872     0.01300
C900        C  0.15521324  0.42291224  0.57581406    -0.24000
C901        C  0.21648376  0.33875747  0.67974281    -0.28600
C902        C  0.20926987  0.30150483  0.67902993     0.07000
C903        C  0.18518597  0.28542653  0.65328331    -0.27200
H904        H  0.22617354  0.41011213  0.67495162     0.11700
H905        H  0.19941199  0.44692244  0.62951266     0.12800
H906        H  0.13961038  0.26176288  0.60035805     0.11900
H907        H  0.11301250  0.29853664  0.55476191     0.11200
H908        H  0.10623832  0.35721804  0.52846280     0.16500
H909        H  0.16252700  0.45131613  0.57561242     0.12500
H910        H  0.23445438  0.35118812  0.70015379     0.15300
H911        H  0.17989182  0.25653321  0.65267659     0.15100
C912        C  0.20684584  0.54587354  0.27422248    -0.17800
C913        C  0.21668397  0.56894208  0.24768332    -0.20000
C914        C  0.20684866  0.60563683  0.25065358     0.20700
C915        C  0.18648210  0.61918505  0.28036441    -0.02900
C916        C  0.17645761  0.59590661  0.30702223    -0.05900
C917        C  0.18697624  0.55914927  0.30410267     0.21000
C918        C  0.15627627  0.60954703  0.33676708     0.19100
C919        C  0.14598015  0.64611021  0.33952970    -0.17400
C920        C  0.15611663  0.66924924  0.31321709    -0.19600
C921        C  0.17641320  0.65607274  0.28360155     0.20600
C922        C  0.18714226  0.67918013  0.25732401    -0.32700
C923        C  0.20777144  0.66583236  0.22798367     0.01300
C924        C  0.21722048  0.62910126  0.22457625    -0.24000
C925        C  0.17805313  0.53654069  0.33142402    -0.28600
C926        C  0.15873183  0.55022878  0.36157693     0.07000
C927        C  0.14721565  0.58658153  0.36355644    -0.27200
H928        H  0.21504689  0.51773348  0.27151730     0.11700
H929        H  0.23227789  0.55816195  0.22498757     0.12800
H930        H  0.13044084  0.65692552  0.36227138     0.11900
H931        H  0.14820654  0.69744283  0.31608229     0.11200
H932        H  0.18018108  0.70767248  0.25996094     0.16500
H933        H  0.23218178  0.61871638  0.20145297     0.12500
H934        H  0.18694782  0.50857321  0.32967145     0.15300
H935        H  0.13117339  0.59720993  0.38596687     0.15100
C936        C  0.08977838  0.63766851  0.53143083    -0.17800
C937        C  0.10634520  0.66690347  0.55115346    -0.20000
C938        C  0.14263256  0.66409574  0.56540885     0.20700
C939        C  0.16232877  0.63150228  0.55971149    -0.02900
C940        C  0.14554574  0.60199604  0.54000610    -0.05900
C941        C  0.10906447  0.60489723  0.52555308     0.21000
C942        C  0.16566547  0.56975605  0.53435665     0.19100
C943        C  0.20195178  0.56678726  0.54826402    -0.17400
C944        C  0.21844054  0.59581716  0.56772459    -0.19600
C945        C  0.19894061  0.62834148  0.57358207     0.20600
C946        C  0.21537287  0.65746734  0.59345852    -0.32700
C947        C  0.19574976  0.68987025  0.60031693     0.01300
C948        C  0.15946104  0.69309125  0.58549394    -0.24000
C949        C  0.09312769  0.57536549  0.50493644    -0.28600
C950        C  0.11359118  0.54315422  0.49884355     0.07000
C951        C  0.14976009  0.54111795  0.51411446    -0.27200
H952        H  0.06190337  0.64076641  0.52068662     0.11700
H953        H  0.09071689  0.69177359  0.55525648     0.12800
H954        H  0.21769782  0.54197238  0.54395358     0.11900
H955        H  0.24646378  0.59282353  0.57819049     0.11200
H956        H  0.24306306  0.65430376  0.60445344     0.16500
H957        H  0.14412520  0.71810010  0.58958455     0.12500
H958        H  0.06591953  0.57804279  0.49274396     0.15300
H959        H  0.16659808  0.51711338  0.50882919     0.15100
C960        C  0.18259456  0.09154383  0.13944037    -0.17800
C961        C  0.16171999  0.07242276  0.11327086    -0.20000
C962        C  0.12815028  0.08666859  0.10085557     0.20700
C963        C  0.11523724  0.12033611  0.11512727    -0.02900
C964        C  0.13625397  0.13955646  0.14162115    -0.05900
C965        C  0.17011999  0.12512005  0.15373695     0.21000
C966        C  0.12395499  0.17364806  0.15519159     0.19100
C967        C  0.09053886  0.18808854  0.14252513    -0.17400
C968        C  0.06950768  0.16890279  0.11646045    -0.19600
C969        C  0.08173884  0.13511279  0.10245821     0.20600
C970        C  0.06154901  0.11620849  0.07547449    -0.32700
C971        C  0.07474508  0.08298329  0.06068393     0.01300
C972        C  0.10774013  0.06817385  0.07386813    -0.24000
C973        C  0.19137820  0.14475716  0.17940958    -0.28600
C974        C  0.17896802  0.17847136  0.19395154     0.07000
C975        C  0.14561982  0.19304324  0.18069094    -0.27200
H976        H  0.20860208  0.08013080  0.14838905     0.11700
H977        H  0.17202631  0.04664691  0.10249422     0.16100
H978        H  0.08073868  0.21430056  0.15268640     0.11900
H979        H  0.04390029  0.18067191  0.10697465     0.11200
H980        H  0.03610800  0.12785517  0.06554937     0.16500
H981        H  0.11795332  0.04250873  0.06267619     0.12500
H982        H  0.21820076  0.13409268  0.18692713     0.15300
H983        H  0.13680400  0.21997666  0.18956742     0.15100
C984        C  0.37535617  0.30697465  0.20253689    -0.17800
C985        C  0.39927505  0.32860388  0.18315303    -0.20000
C986        C  0.38547507  0.34748427  0.15473839     0.20700
C987        C  0.34709329  0.34457022  0.14589789    -0.02900
C988        C  0.32298598  0.32260547  0.16534586    -0.05900
C989        C  0.33714911  0.30368402  0.19384317     0.21000
C990        C  0.28478289  0.31932739  0.15600757     0.19100
C991        C  0.27085949  0.33829668  0.12777061    -0.17400
C992        C  0.29460670  0.36026507  0.10878253    -0.19600
C993        C  0.33275330  0.36352801  0.11755528     0.20600
C994        C  0.35669740  0.38552418  0.09853211    -0.32700
C995        C  0.39500810  0.38881198  0.10711596     0.01300
C996        C  0.40922371  0.36941708  0.13519557    -0.24000
C997        C  0.31304272  0.28125122  0.21253608    -0.28600
C998        C  0.27523359  0.27697077  0.20249428     0.07000
C999        C  0.26127665  0.29661582  0.17458350    -0.27200
H1000       H  0.38681064  0.29262350  0.22420603     0.11700
H1001       H  0.42866254  0.33054489  0.19040310     0.12800
H1002       H  0.24158315  0.33603407  0.12027111     0.11900
H1003       H  0.28313097  0.37462987  0.08710096     0.11200
H1004       H  0.34553700  0.40011777  0.07687211     0.16500
H1005       H  0.43853565  0.37219140  0.14247028     0.12500
H1006       H  0.32400517  0.26595782  0.23382904     0.15300
H1007       H  0.23203662  0.29376280  0.16697117     0.15100
C1008       C  0.39465481  0.20518606  0.36240635    -0.17800
C1009       C  0.36679557  0.21945331  0.34129854    -0.20000
C1010       C  0.33905838  0.19685050  0.32553707     0.20700
C1011       C  0.33923833  0.15955761  0.33166889    -0.02900
C1012       C  0.36755267  0.14504787  0.35293414    -0.05900
C1013       C  0.39540244  0.16801560  0.36801462     0.21000
C1014       C  0.36814383  0.10763812  0.35887670     0.19100
C1015       C  0.33990984  0.08523803  0.34361633    -0.17400
C1016       C  0.31180204  0.09962828  0.32265038    -0.19600
C1017       C  0.31131468  0.13674547  0.31641869     0.20600
C1018       C  0.28344188  0.15130299  0.29513461    -0.32700
C1019       C  0.28332374  0.18850587  0.28773556     0.01300
C1020       C  0.31150817  0.21092856  0.30351943    -0.24000
C1021       C  0.42376925  0.15353310  0.38829904    -0.28600
C1022       C  0.42529792  0.11617972  0.39450336     0.07000
C1023       C  0.39694088  0.09337198  0.37974947    -0.27200
H1024       H  0.41585841  0.22320783  0.37409996     0.11700
H1025       H  0.36708892  0.24818108  0.33713600     0.12800
H1026       H  0.33962275  0.05652287  0.34776658     0.11900
H1027       H  0.29050606  0.08161532  0.31111124     0.11200
H1028       H  0.26187420  0.13309204  0.28476620     0.16500
H1029       H  0.31279422  0.23932723  0.29846445     0.12500
H1030       H  0.44509287  0.17167806  0.39966299     0.15300
H1031       H  0.39705470  0.06491685  0.38417444     0.15100
C1032       C  0.19819019  0.36139477  0.39387493    -0.17800
C1033       C  0.21317175  0.33399643  0.37150312    -0.20000
C1034       C  0.19250265  0.31977714  0.34243659     0.20700
C1035       C  0.15628828  0.33334675  0.33591377    -0.02900
C1036       C  0.14096186  0.36091701  0.35877264    -0.05900
C1037       C  0.16220977  0.37483086  0.38767154     0.21000
C1038       C  0.10488180  0.37502864  0.35236282     0.19100
C1039       C  0.08456815  0.36103697  0.32283055    -0.17400
C1040       C  0.09979818  0.33367714  0.30008391    -0.19600
C1041       C  0.13564742  0.31968922  0.30641346     0.20600
C1042       C  0.15140177  0.29257121  0.28364620    -0.32700
C1043       C  0.18742784  0.27843943  0.29024220     0.01300
C1044       C  0.20762319  0.29234106  0.31981759    -0.24000
C1045       C  0.14770646  0.40265151  0.40959029    -0.28600
C1046       C  0.11185500  0.41745264  0.40393731     0.07000
C1047       C  0.09037248  0.40333649  0.37507319    -0.27200
H1048       H  0.21482593  0.37216283  0.41604837     0.11700
H1049       H  0.24099865  0.32407338  0.37683105     0.12800
H1050       H  0.05698572  0.37138914  0.31718538     0.11900
H1051       H  0.08353221  0.32350586  0.27743933     0.11200
H1052       H  0.13569718  0.28305576  0.26044647     0.16500
H1053       H  0.23496912  0.28162055  0.32561239     0.12500
H1054       H  0.16530649  0.41404240  0.43082131     0.15300
H1055       H  0.06350432  0.41508300  0.36937724     0.15100
loop_ 
_geom_bond_atom_site_label_1 
_geom_bond_atom_site_label_2 
_geom_bond_distance 
_geom_bond_site_symmetry_2 
_ccdc_geom_bond_type 
C1            C2   1.537       .  S
C1            C7   1.527       .  S
C1            C5   1.532       .  S
C1          C974   1.524       .  S
C2            H9   1.079       .  S
C2            C3   1.374       .  D
C3            C4   1.563       .  S
C3         C1019   1.516       .  S
C4            C8   1.545       .  S
C4            C6   1.555       .  S
C4           H10   1.105       .  S
C5           H11   1.084       .  S
C5            C6   1.364       .  D
C6         C1043   1.497       .  S
C7           H12   1.087       .  S
C7            C8   1.362       .  D
C8          C998   1.490       .  S
C13          C15   1.529       .  S
C13          C17   1.532       .  S
C13          C16   1.561       .  S
C13        C1046   1.531       .  S
C14          C18   1.530       .  S
C14          C20   1.525       .  S
C14          C19   1.566       .  S
C14         C950   1.539       .  S
C15          C23   1.384       .  A
C15          C18   1.387       .  A
C16          C27   1.385       .  A
C16          C19   1.433       .  A
C17          C31   1.378       .  A
C17          C20   1.375       .  A
C18          C21   1.377       .  A
C19          C25   1.388       .  A
C20          C28   1.373       .  A
C21          N22   1.352       .  A
C21          H34   1.082       .  S
N22          C23   1.352       .  A
N22         C926   1.440       .  S
C23          H24   1.082       .  S
C25          N26   1.364       .  A
C25          H35   1.079       .  S
N26          C27   1.360       .  A
N26         N108   1.422   1_455  S
C27          H33   1.081       .  S
C28          N29   1.356       .  A
C28          H30   1.082       .  S
N29          C31   1.358       .  A
N29         C899   1.437       .  S
C31          H32   1.081       .  S
C36          C37   1.542       .  S
C36          C42   1.531       .  S
C36          C40   1.535       .  S
C36         C827   1.530       .  S
C37          H44   1.083       .  S
C37          C38   1.362       .  D
C38          C39   1.547       .  S
C38         C875   1.484       .  S
C39          C43   1.548       .  S
C39          C41   1.561       .  S
C39          H45   1.110       .  S
C40          H46   1.085       .  S
C40          C41   1.370       .  D
C41         C947   1.504       .  S
C42          H47   1.087       .  S
C42          C43   1.363       .  D
C43         C851   1.492       .  S
C48          C50   1.540       .  S
C48          C52   1.550       .  S
C48          C51   1.569       .  S
C48        C1022   1.538       .  S
C49          C53   1.530       .  S
C49          C55   1.550       .  S
C49          C54   1.536       .  S
C49         C755   1.531       .  S
C50          C58   1.381       .  A
C50          C53   1.380       .  A
C51          C62   1.402       .  A
C51          C54   1.407       .  A
C52          C66   1.387       .  A
C52          C55   1.394       .  A
C53          C56   1.376       .  A
C54          C60   1.372       .  A
C55          C63   1.387       .  A
C56          N57   1.356       .  A
C56          H69   1.081       .  S
N57          C58   1.359       .  A
N57         C782   1.441       .  S
C58          H59   1.082       .  S
C60          N61   1.351       .  A
C60          H70   1.082       .  S
N61          C62   1.368       .  A
N61         N155   1.414   1_545  S
C62          H68   1.079       .  S
C63          N64   1.360       .  A
C63          H65   1.076       .  S
N64          C66   1.361       .  A
N64         C803   1.455       .  S
C66          H67   1.081       .  S
C71          C72   1.547       .  S
C71          C77   1.535       .  S
C71          C75   1.536       .  S
C71         C683   1.529       .  S
C72          H79   1.080       .  S
C72          C73   1.369       .  D
C73          C74   1.556       .  S
C73         C734   1.506       .  S
C74          C78   1.554       .  S
C74          C76   1.541       .  S
C74          H80   1.104       .  S
C75          H81   1.087       .  S
C75          C76   1.359       .  D
C76         C806   1.486       .  S
C77          H82   1.085       .  S
C77          C78   1.368       .  D
C78         C707   1.504       .  S
C83          C84   1.540       .  S
C83          C89   1.539       .  S
C83          C87   1.544       .  S
C83         C638   1.520       .  S
C84          H91   1.086       .  S
C84          C85   1.358       .  D
C85          C86   1.529       .  S
C85         C902   1.471       .  S
C86          C90   1.543       .  S
C86          C88   1.527       .  S
C86          H92   1.107       .  S
C87          H93   1.082       .  S
C87          C88   1.364       .  D
C88         C779   1.471       .  S
C89          H94   1.085       .  S
C89          C90   1.370       .  D
C90         C659   1.494       .  S
C95          C97   1.553       .  S
C95          C99   1.551       .  S
C95          C98   1.553       .  S
C95         C566   1.544       .  S
C96         C100   1.533       .  S
C96         C102   1.534       .  S
C96         C101   1.555       .  S
C96         C731   1.540       .  S
C97         C105   1.395       .  A
C97         C100   1.386       .  A
C98         C109   1.381       .  A
C98         C101   1.412       .  A
C99         C113   1.389       .  A
C99         C102   1.388       .  A
C100        C103   1.373       .  A
C101        C107   1.388       .  A
C102        C110   1.377       .  A
C103        N104   1.355       .  A
C103        H116   1.082       .  S
N104        C105   1.362       .  A
N104        C611   1.448       .  S
C105        H106   1.079       .  S
C107        N108   1.367       .  A
C107        H117   1.081       .  S
N108        C109   1.362       .  A
C109        H115   1.081       .  S
C110        N111   1.351       .  A
C110        H112   1.083       .  S
N111        C113   1.357       .  A
N111        C590   1.435       .  S
C113        H114   1.080       .  S
C118        C119   1.543       .  S
C118        C124   1.535       .  S
C118        C122   1.548       .  S
C118        C491   1.532       .  S
C119        H126   1.086       .  S
C119        C120   1.363       .  D
C120        C121   1.537       .  S
C120        C539   1.474       .  S
C121        C125   1.540       .  S
C121        C123   1.533       .  S
C121        H127   1.111       .  S
C122        H128   1.084       .  S
C122        C123   1.369       .  D
C123        C614   1.485       .  S
C124        H129   1.086       .  S
C124        C125   1.366       .  D
C125        C518   1.484       .  S
C130        C131   1.542       .  S
C130        C136   1.537       .  S
C130        C134   1.545       .  S
C130        C443   1.527       .  S
C131        H138   1.083       .  S
C131        C132   1.355       .  D
C132        C133   1.528       .  S
C132        C758   1.465       .  S
C133        C137   1.534       .  S
C133        C135   1.532       .  S
C133        H139   1.110       .  S
C134        H140   1.086       .  S
C134        C135   1.370       .  D
C135        C587   1.477       .  S
C136        H141   1.086       .  S
C136        C137   1.369       .  D
C137        C467   1.482       .  S
C142        C144   1.550       .  S
C142        C146   1.560       .  S
C142        C145   1.551       .  S
C142        C878   1.544       .  S
C143        C147   1.536       .  S
C143        C149   1.546       .  S
C143        C148   1.531       .  S
C143        C542   1.535       .  S
C144        C152   1.387       .  A
C144        C147   1.391       .  A
C145        C156   1.394       .  A
C145        C148   1.392       .  A
C146        C160   1.393       .  A
C146        C149   1.412       .  A
C147        C150   1.373       .  A
C148        C154   1.377       .  A
C149        C157   1.388       .  A
C150        N151   1.356       .  A
C150        H163   1.081       .  S
N151        C152   1.359       .  A
N151        C419   1.441       .  S
C152        H153   1.080       .  S
C154        N155   1.356       .  A
C154        H164   1.082       .  S
N155        C156   1.367       .  A
C156        H162   1.082       .  S
C157        N158   1.353       .  A
C157        H159   1.080       .  S
N158        C160   1.354       .  A
N158        C398   1.454       .  S
C160        H161   1.076       .  S
C165        C166   1.550       .  S
C165        C171   1.544       .  S
C165        C169   1.543       .  S
C165        C350   1.532       .  S
C166        H173   1.080       .  S
C166        C167   1.360       .  D
C167        C168   1.525       .  S
C167        C923   1.473       .  S
C168        C172   1.546       .  S
C168        C170   1.529       .  S
C168        H174   1.108       .  S
C169        H175   1.086       .  S
C169        C170   1.365       .  D
C170        C422   1.477       .  S
C171        H176   1.085       .  S
C171        C172   1.369       .  D
C172        C374   1.497       .  S
C177        C178   1.543       .  S
C177        C183   1.531       .  S
C177        C181   1.536       .  S
C177        C302   1.528       .  S
C178        H185   1.081       .  S
C178        C179   1.363       .  D
C179        C180   1.546       .  S
C179        C563   1.482       .  S
C180        C184   1.549       .  S
C180        C182   1.543       .  S
C180        H186   1.111       .  S
C181        H187   1.087       .  S
C181        C182   1.364       .  D
C182        C395   1.480       .  S
C183        H188   1.087       .  S
C183        C184   1.363       .  D
C184        C323   1.479       .  S
C189        C191   1.534       .  S
C189        C193   1.544       .  S
C189        C192   1.571       .  S
C189        C710   1.538       .  S
C190        C194   1.529       .  S
C190        C196   1.543       .  S
C190        C195   1.550       .  S
C190        C371   1.533       .  S
C191        C199   1.382       .  A
C191        C194   1.382       .  A
C192        C203   1.392   1_554  A
C192        C195   1.421       .  A
C193        C207   1.388       .  A
C193        C196   1.383       .  A
C194        C197   1.380       .  A
C195        C201   1.380   1_554  A
C196        C204   1.383       .  A
C197        N198   1.353       .  A
C197        H210   1.083       .  S
N198        C199   1.355       .  A
N198        C515   1.435       .  S
C199        H200   1.082       .  S
C201        N202   1.357       .  A
C201        H211   1.080       .  S
N202        C203   1.363       .  A
N202        N225   1.413       .  S
C203        H209   1.080       .  S
C204        N205   1.358       .  A
C204        H206   1.082       .  S
N205        C207   1.360       .  A
N205        C995   1.448       .  S
C207        H208   1.082       .  S
C212        C214   1.544       .  S
C212        C216   1.565       .  S
C212        C215   1.558       .  S
C212        C326   1.543       .  S
C213        C217   1.528       .  S
C213        C219   1.537       .  S
C213        C218   1.545       .  S
C213        C662   1.528       .  S
C214        C222   1.386       .  A
C214        C217   1.383       .  A
C215        C226   1.389       .  A
C215        C218   1.409       .  A
C216        C230   1.398       .  A
C216        C219   1.396       .  A
C217        C220   1.376       .  A
C218        C224   1.383       .  A
C219        C227   1.379       .  A
C220        N221   1.352       .  A
C220        H233   1.084       .  S
N221        C222   1.356       .  A
N221        C470   1.433       .  S
C222        H223   1.081       .  S
C224        N225   1.356       .  A
C224        H234   1.079       .  S
N225        C226   1.362       .  A
C226        H232   1.081       .  S
C227        N228   1.351       .  A
C227        H229   1.082       .  S
N228        C230   1.359       .  A
N228        C854   1.443       .  S
C230        H231   1.078       .  S
C235        N253   1.348       .  A
C235        C272   1.463       .  S
C235        C347   1.473       .  S
N236        N253   1.322   1_556  A
N236        N258   1.318       .  A
N236       Co273   2.073   1_455  S
C237        N262   1.338       .  A
C237        H282   1.081       .  S
C237        C275   1.462       .  S
H238        C279   1.081       .  S
C239        N263   1.345   1_554  A
C239        H268   1.081       .  S
C239        C243   1.466       .  S
Co240       N258   2.083       .  S
Co240       N248   2.085   1_565  S
Co240       N280   2.086       .  S
Co240       N256   2.080   1_565  S
Co240      Cl284   2.452   1_455  S
N241        C279   1.339   1_556  A
N241        N248   1.319       .  A
N241       Co242   2.077   1_455  S
Co242       N245   2.068       .  S
Co242       N262   2.074   1_655  S
Co242       N249   2.088       .  S
Co242      Cl284   2.444   1_545  S
C243        N281   1.346       .  A
C243        C686   1.473       .  S
N244        N251   1.320       .  A
N244        N274   1.321   1_556  A
N244       Co277   2.078       .  S
N245        N263   1.317       .  A
N245        N281   1.319   1_556  A
N246        C275   1.349       .  A
N246        N256   1.323       .  A
H247        C272   1.082       .  S
N248        N269   1.323   1_556  A
N249        N267   1.320       .  A
N249        N254   1.327       .  A
C250        N254   1.352       .  A
C250        C278   1.462       .  S
C250        C446   1.480       .  S
N251        C266   1.345   1_556  A
N251       Co273   2.092       .  S
C252        N280   1.341       .  A
C252        H286   1.081       .  S
C252        C255   1.464       .  S
C255        N276   1.352       .  A
C255        C830   1.482       .  S
N256        N262   1.318       .  A
N257        C283   1.334       .  A
N257        N259   1.319       .  A
N257       Co273   2.071       .  S
N258        C272   1.342   1_556  A
N259        N287   1.327       .  A
N259       Co277   2.089       .  S
H260        C283   1.081       .  S
H261        C278   1.081       .  S
N263       Co277   2.087   1_545  S
N264        N276   1.326       .  A
N264        N280   1.320       .  A
N264       Co273   2.093   1_455  S
C265        N269   1.351       .  A
C265        C279   1.459       .  S
C265        C971   1.475       .  S
C266        H270   1.081       .  S
C266        C285   1.466       .  S
N267        C278   1.336       .  A
N267       Co277   2.082   1_545  S
C271        N287   1.353       .  A
C271        C283   1.457       .  S
C271        C299   1.476       .  S
Co273      Cl284   2.442       .  S
N274        C285   1.349       .  A
C275        C635   1.474       .  S
Co277      Cl284   2.454       .  S
C285        C494   1.480       .  S
C288        C289   1.402       .  A
C288        C293   1.405       .  A
C288        H304   1.084       .  S
C289        C290   1.405       .  A
C289        H305   1.083       .  S
C290        C300   1.408       .  A
C290        C291   1.413       .  A
C291        C297   1.410       .  A
C291        C292   1.411       .  A
C292        C294   1.410       .  A
C292        C293   1.409       .  A
C293        C301   1.405       .  A
C294        C303   1.398       .  A
C294        C295   1.403       .  A
C295        C296   1.395       .  A
C295        H306   1.084       .  S
C296        C297   1.402       .  A
C296        H307   1.083       .  S
C297        C298   1.396       .  A
C298        C299   1.404       .  A
C298        H308   1.084       .  S
C299        C300   1.407       .  A
C300        H309   1.084       .  S
C301        C302   1.413       .  A
C301        H310   1.085       .  S
C302        C303   1.410       .  A
C303        H311   1.075       .  S
C312        C313   1.404       .  A
C312        C317   1.406       .  A
C312        H328   1.083       .  S
C313        C314   1.406       .  A
C313        H329   1.084       .  S
C314        C324   1.410       .  A
C314        C315   1.412       .  A
C315        C321   1.412       .  A
C315        C316   1.414       .  A
C316        C318   1.409       .  A
C316        C317   1.410       .  A
C317        C325   1.411       .  A
C318        C327   1.403       .  A
C318        C319   1.403       .  A
C319        C320   1.399       .  A
C319        H330   1.083       .  S
C320        C321   1.403       .  A
C320        H331   1.084       .  S
C321        C322   1.403       .  A
C322        C323   1.403       .  A
C322        H332   1.085       .  S
C323        C324   1.407       .  A
C324        H333   1.085       .  S
C325        C326   1.413       .  A
C325        H334   1.084       .  S
C326        C327   1.406       .  A
C327        H335   1.077       .  S
C336        C337   1.398       .  A
C336        C341   1.405       .  A
C336        H352   1.084       .  S
C337        C338   1.403       .  A
C337        H353   1.084       .  S
C338        C348   1.401       .  A
C338        C339   1.412       .  A
C339        C345   1.412       .  A
C339        C340   1.412       .  A
C340        C342   1.410       .  A
C340        C341   1.409       .  A
C341        C349   1.402       .  A
C342        C351   1.403       .  A
C342        C343   1.403       .  A
C343        C344   1.399       .  A
C343        H354   1.083       .  S
C344        C345   1.403       .  A
C344        H355   1.083       .  S
C345        C346   1.404       .  A
C346        C347   1.405       .  A
C346        H356   1.083       .  S
C347        C348   1.404       .  A
C348        H357   1.085       .  S
C349        C350   1.415       .  A
C349        H358   1.075       .  S
C350        C351   1.410       .  A
C351        H359   1.084       .  S
C360        C361   1.409       .  A
C360        C365   1.408       .  A
C360        H376   1.083       .  S
C361        C362   1.408       .  A
C361        H377   1.083       .  S
C362        C372   1.422       .  A
C362        C363   1.414       .  A
C363        C369   1.404       .  A
C363        C364   1.413       .  A
C364        C366   1.410       .  A
C364        C365   1.409       .  A
C365        C373   1.416       .  A
C366        C375   1.390       .  A
C366        C367   1.399       .  A
C367        C368   1.388       .  A
C367        H378   1.084       .  S
C368        C369   1.401       .  A
C368        H379   1.083       .  S
C369        C370   1.384       .  A
C370        C371   1.410       .  A
C370        H380   1.083       .  S
C371        C372   1.415       .  A
C372        H381   1.079       .  S
C373        C374   1.417       .  A
C373        H382   1.083       .  S
C374        C375   1.402       .  A
C375        H383   1.077       .  S
C384        C385   1.402       .  A
C384        C389   1.405       .  A
C384        H400   1.084       .  S
C385        C386   1.404       .  A
C385        H401   1.083       .  S
C386        C396   1.410       .  A
C386        C387   1.414       .  A
C387        C393   1.411       .  A
C387        C388   1.415       .  A
C388        C390   1.410       .  A
C388        C389   1.409       .  A
C389        C397   1.407       .  A
C390        C399   1.403       .  A
C390        C391   1.404       .  A
C391        C392   1.398       .  A
C391        H402   1.084       .  S
C392        C393   1.403       .  A
C392        H403   1.084       .  S
C393        C394   1.402       .  A
C394        C395   1.404       .  A
C394        H404   1.085       .  S
C395        C396   1.405       .  A
C396        H405   1.084       .  S
C397        C398   1.414       .  A
C397        H406   1.080       .  S
C398        C399   1.412       .  A
C399        H407   1.082       .  S
C408        C409   1.396       .  A
C408        C413   1.402       .  A
C408        H424   1.083       .  S
C409        C410   1.403       .  A
C409        H425   1.084       .  S
C410        C420   1.396       .  A
C410        C411   1.408       .  A
C411        C417   1.414       .  A
C411        C412   1.411       .  A
C412        C414   1.410       .  A
C412        C413   1.415       .  A
C413        C421   1.403       .  A
C414        C423   1.403       .  A
C414        C415   1.405       .  A
C415        C416   1.401       .  A
C415        H426   1.084       .  S
C416        C417   1.404       .  A
C416        H427   1.084       .  S
C417        C418   1.408       .  A
C418        C419   1.407       .  A
C418        H428   1.084       .  S
C419        C420   1.407       .  A
C420        H429   1.083       .  S
C421        C422   1.401       .  A
C421        H430   1.084       .  S
C422        C423   1.407       .  A
C423        H431   1.085       .  S
C432        C433   1.403       .  A
C432        C437   1.405       .  A
C432        H448   1.084       .  S
C433        C434   1.405       .  A
C433        H449   1.083       .  S
C434        C444   1.408       .  A
C434        C435   1.410       .  A
C435        C441   1.408       .  A
C435        C436   1.411       .  A
C436        C438   1.411       .  A
C436        C437   1.411       .  A
C437        C445   1.409       .  A
C438        C447   1.396       .  A
C438        C439   1.401       .  A
C439        C440   1.393       .  A
C439        H450   1.083       .  S
C440        C441   1.402       .  A
C440        H451   1.084       .  S
C441        C442   1.394       .  A
C442        C443   1.410       .  A
C442        H452   1.079       .  S
C443        C444   1.413       .  A
C444        H453   1.084       .  S
C445        C446   1.409       .  A
C445        H454   1.084       .  S
C446        C447   1.404       .  A
C447        H455   1.082       .  S
C456        C457   1.399       .  A
C456        C461   1.403       .  A
C456        H472   1.083       .  S
C457        C458   1.404       .  A
C457        H473   1.083       .  S
C458        C468   1.402       .  A
C458        C459   1.411       .  A
C459        C465   1.411       .  A
C459        C460   1.410       .  A
C460        C462   1.412       .  A
C460        C461   1.412       .  A
C461        C469   1.403       .  A
C462        C471   1.400       .  A
C462        C463   1.403       .  A
C463        C464   1.397       .  A
C463        H474   1.083       .  S
C464        C465   1.403       .  A
C464        H475   1.084       .  S
C465        C466   1.399       .  A
C466        C467   1.406       .  A
C466        H476   1.084       .  S
C467        C468   1.406       .  A
C468        H477   1.083       .  S
C469        C470   1.404       .  A
C469        H478   1.083       .  S
C470        C471   1.404       .  A
C471        H479   1.084       .  S
C480        C481   1.398       .  A
C480        C485   1.403       .  A
C480        H496   1.083       .  S
C481        C482   1.403       .  A
C481        H497   1.084       .  S
C482        C492   1.403       .  A
C482        C483   1.411       .  A
C483        C489   1.409       .  A
C483        C484   1.413       .  A
C484        C486   1.413       .  A
C484        C485   1.409       .  A
C485        C493   1.399       .  A
C486        C495   1.408       .  A
C486        C487   1.404       .  A
C487        C488   1.401       .  A
C487        H498   1.084       .  S
C488        C489   1.405       .  A
C488        H499   1.083       .  S
C489        C490   1.406       .  A
C490        C491   1.414       .  A
C490        H500   1.080       .  S
C491        C492   1.411       .  A
C492        H501   1.083       .  S
C493        C494   1.406       .  A
C493        H502   1.084       .  S
C494        C495   1.407       .  A
C495        H503   1.084       .  S
C504        C505   1.399       .  A
C504        C509   1.404       .  A
C504        H520   1.084       .  S
C505        C506   1.403       .  A
C505        H521   1.083       .  S
C506        C516   1.403       .  A
C506        C507   1.412       .  A
C507        C513   1.412       .  A
C507        C508   1.412       .  A
C508        C510   1.412       .  A
C508        C509   1.411       .  A
C509        C517   1.403       .  A
C510        C519   1.404       .  A
C510        C511   1.404       .  A
C511        C512   1.399       .  A
C511        H522   1.084       .  S
C512        C513   1.403       .  A
C512        H523   1.083       .  S
C513        C514   1.403       .  A
C514        C515   1.405       .  A
C514        H524   1.084       .  S
C515        C516   1.404       .  A
C516        H525   1.084       .  S
C517        C518   1.406       .  A
C517        H526   1.084       .  S
C518        C519   1.406       .  A
C519        H527   1.084       .  S
C528        C529   1.400       .  A
C528        C533   1.404       .  A
C528        H544   1.083       .  S
C529        C530   1.404       .  A
C529        H545   1.083       .  S
C530        C540   1.405       .  A
C530        C531   1.413       .  A
C531        C537   1.412       .  A
C531        C532   1.412       .  A
C532        C534   1.410       .  A
C532        C533   1.410       .  A
C533        C541   1.404       .  A
C534        C543   1.404       .  A
C534        C535   1.404       .  A
C535        C536   1.400       .  A
C535        H546   1.084       .  S
C536        C537   1.404       .  A
C536        H547   1.084       .  S
C537        C538   1.404       .  A
C538        C539   1.403       .  A
C538        H548   1.085       .  S
C539        C540   1.403       .  A
C540        H549   1.084       .  S
C541        C542   1.410       .  A
C541        H550   1.080       .  S
C542        C543   1.410       .  A
C543        H551   1.084       .  S
C552        C553   1.403       .  A
C552        C557   1.405       .  A
C552        H568   1.084       .  S
C553        C554   1.405       .  A
C553        H569   1.084       .  S
C554        C564   1.410       .  A
C554        C555   1.413       .  A
C555        C561   1.411       .  A
C555        C556   1.414       .  A
C556        C558   1.411       .  A
C556        C557   1.408       .  A
C557        C565   1.407       .  A
C558        C567   1.406       .  A
C558        C559   1.403       .  A
C559        C560   1.401       .  A
C559        H570   1.084       .  S
C560        C561   1.405       .  A
C560        H571   1.084       .  S
C561        C562   1.404       .  A
C562        C563   1.406       .  A
C562        H572   1.085       .  S
C563        C564   1.405       .  A
C564        H573   1.084       .  S
C565        C566   1.412       .  A
C565        H574   1.081       .  S
C566        C567   1.408       .  A
C567        H575   1.081       .  S
C576        C577   1.399       .  A
C576        C581   1.403       .  A
C576        H592   1.083       .  S
C577        C578   1.404       .  A
C577        H593   1.084       .  S
C578        C588   1.400       .  A
C578        C579   1.411       .  A
C579        C585   1.413       .  A
C579        C580   1.410       .  A
C580        C582   1.411       .  A
C580        C581   1.413       .  A
C581        C589   1.402       .  A
C582        C591   1.401       .  A
C582        C583   1.403       .  A
C583        C584   1.398       .  A
C583        H594   1.083       .  S
C584        C585   1.402       .  A
C584        H595   1.084       .  S
C585        C586   1.402       .  A
C586        C587   1.402       .  A
C586        H596   1.085       .  S
C587        C588   1.406       .  A
C588        H597   1.084       .  S
C589        C590   1.404       .  A
C589        H598   1.084       .  S
C590        C591   1.405       .  A
C591        H599   1.083       .  S
C600        C601   1.404       .  A
C600        C605   1.405       .  A
C600        H616   1.083       .  S
C601        C602   1.406       .  A
C601        H617   1.084       .  S
C602        C612   1.411       .  A
C602        C603   1.412       .  A
C603        C609   1.410       .  A
C603        C604   1.414       .  A
C604        C606   1.412       .  A
C604        C605   1.412       .  A
C605        C613   1.410       .  A
C606        C615   1.401       .  A
C606        C607   1.402       .  A
C607        C608   1.397       .  A
C607        H618   1.084       .  S
C608        C609   1.403       .  A
C608        H619   1.084       .  S
C609        C610   1.400       .  A
C610        C611   1.409       .  A
C610        H620   1.082       .  S
C611        C612   1.411       .  A
C612        H621   1.083       .  S
C613        C614   1.408       .  A
C613        H622   1.084       .  S
C614        C615   1.404       .  A
C615        H623   1.084       .  S
C624        C625   1.396       .  A
C624        C629   1.402       .  A
C624        H640   1.084       .  S
C625        C626   1.402       .  A
C625        H641   1.083       .  S
C626        C636   1.399       .  A
C626        C627   1.411       .  A
C627        C633   1.411       .  A
C627        C628   1.409       .  A
C628        C630   1.411       .  A
C628        C629   1.409       .  A
C629        C637   1.395       .  A
C630        C639   1.403       .  A
C630        C631   1.404       .  A
C631        C632   1.399       .  A
C631        H642   1.084       .  S
C632        C633   1.404       .  A
C632        H643   1.083       .  S
C633        C634   1.402       .  A
C634        C635   1.405       .  A
C634        H644   1.084       .  S
C635        C636   1.405       .  A
C636        H645   1.082       .  S
C637        C638   1.408       .  A
C637        H646   1.085       .  S
C638        C639   1.411       .  A
C639        H647   1.078       .  S
C648        C649   1.392       .  A
C648        C653   1.402       .  A
C648        H664   1.083       .  S
C649        C650   1.401       .  A
C649        H665   1.087       .  S
C650        C660   1.394       .  A
C650        C651   1.410       .  A
C651        C657   1.409       .  A
C651        C652   1.410       .  A
C652        C654   1.412       .  A
C652        C653   1.405       .  A
C653        C661   1.389       .  A
C654        C663   1.411       .  A
C654        C655   1.405       .  A
C655        C656   1.403       .  A
C655        H666   1.085       .  S
C656        C657   1.406       .  A
C656        H667   1.083       .  S
C657        C658   1.407       .  A
C658        C659   1.413       .  A
C658        H668   1.082       .  S
C659        C660   1.406       .  A
C660        H669   1.080       .  S
C661        C662   1.411       .  A
C661        H670   1.085       .  S
C662        C663   1.410       .  A
C663        H671   1.078       .  S
C672        C673   1.395       .  A
C672        C677   1.402       .  A
C672        H688   1.084       .  S
C673        C674   1.403       .  A
C673        H689   1.083       .  S
C674        C684   1.400       .  A
C674        C675   1.411       .  A
C675        C681   1.408       .  A
C675        C676   1.411       .  A
C676        C678   1.413       .  A
C676        C677   1.410       .  A
C677        C685   1.396       .  A
C678        C687   1.407       .  A
C678        C679   1.404       .  A
C679        C680   1.401       .  A
C679        H690   1.084       .  S
C680        C681   1.405       .  A
C680        H691   1.083       .  S
C681        C682   1.403       .  A
C682        C683   1.414       .  A
C682        H692   1.084       .  S
C683        C684   1.409       .  A
C684        H693   1.078       .  S
C685        C686   1.404       .  A
C685        H694   1.085       .  S
C686        C687   1.406       .  A
C687        H695   1.084       .  S
C696        C697   1.394       .  A
C696        C701   1.403       .  A
C696        H712   1.084       .  S
C697        C698   1.401       .  A
C697        H713   1.084       .  S
C698        C708   1.401       .  A
C698        C699   1.412       .  A
C699        C705   1.408       .  A
C699        C700   1.416       .  A
C700        C702   1.415       .  A
C700        C701   1.404       .  A
C701        C709   1.391       .  A
C702        C711   1.421       .  A
C702        C703   1.406       .  A
C703        C704   1.407       .  A
C703        H714   1.083       .  S
C704        C705   1.408       .  A
C704        H715   1.083       .  S
C705        C706   1.413       .  A
C706        C707   1.418       .  A
C706        H716   1.083       .  S
C707        C708   1.406       .  A
C708        H717   1.081       .  S
C709        C710   1.414       .  A
C709        H718   1.085       .  S
C710        C711   1.412       .  A
C711        H719   1.077       .  S
C720        C721   1.392       .  A
C720        C725   1.400       .  A
C720        H736   1.084       .  S
C721        C722   1.402       .  A
C721        H737   1.084       .  S
C722        C732   1.387       .  A
C722        C723   1.403       .  A
C723        C729   1.416       .  A
C723        C724   1.416       .  A
C724        C726   1.407       .  A
C724        C725   1.412       .  A
C725        C733   1.398       .  A
C726        C735   1.415       .  A
C726        C727   1.409       .  A
C727        C728   1.409       .  A
C727        H738   1.083       .  S
C728        C729   1.407       .  A
C728        H739   1.084       .  S
C729        C730   1.424       .  A
C730        C731   1.413       .  A
C730        H740   1.081       .  S
C731        C732   1.415       .  A
C732        H741   1.084       .  S
C733        C734   1.405       .  A
C733        H742   1.081       .  S
C734        C735   1.420       .  A
C735        H743   1.082       .  S
C744        C745   1.400       .  A
C744        C749   1.404       .  A
C744        H760   1.084       .  S
C745        C746   1.404       .  A
C745        H761   1.084       .  S
C746        C756   1.402       .  A
C746        C747   1.409       .  A
C747        C753   1.410       .  A
C747        C748   1.408       .  A
C748        C750   1.412       .  A
C748        C749   1.413       .  A
C749        C757   1.402       .  A
C750        C759   1.399       .  A
C750        C751   1.403       .  A
C751        C752   1.398       .  A
C751        H762   1.084       .  S
C752        C753   1.403       .  A
C752        H763   1.083       .  S
C753        C754   1.400       .  A
C754        C755   1.403       .  A
C754        H764   1.074       .  S
C755        C756   1.412       .  A
C756        H765   1.084       .  S
C757        C758   1.402       .  A
C757        H766   1.085       .  S
C758        C759   1.400       .  A
C759        H767   1.085       .  S
C768        C769   1.399       .  A
C768        C773   1.404       .  A
C768        H784   1.084       .  S
C769        C770   1.404       .  A
C769        H785   1.083       .  S
C770        C780   1.400       .  A
C770        C771   1.411       .  A
C771        C777   1.413       .  A
C771        C772   1.409       .  A
C772        C774   1.409       .  A
C772        C773   1.412       .  A
C773        C781   1.404       .  A
C774        C783   1.397       .  A
C774        C775   1.403       .  A
C775        C776   1.396       .  A
C775        H786   1.084       .  S
C776        C777   1.401       .  A
C776        H787   1.083       .  S
C777        C778   1.400       .  A
C778        C779   1.400       .  A
C778        H788   1.084       .  S
C779        C780   1.405       .  A
C780        H789   1.084       .  S
C781        C782   1.407       .  A
C781        H790   1.083       .  S
C782        C783   1.408       .  A
C783        H791   1.083       .  S
C792        C793   1.399       .  A
C792        C797   1.403       .  A
C792        H808   1.084       .  S
C793        C794   1.404       .  A
C793        H809   1.083       .  S
C794        C804   1.404       .  A
C794        C795   1.410       .  A
C795        C801   1.411       .  A
C795        C796   1.417       .  A
C796        C798   1.413       .  A
C796        C797   1.412       .  A
C797        C805   1.404       .  A
C798        C807   1.411       .  A
C798        C799   1.405       .  A
C799        C800   1.403       .  A
C799        H810   1.083       .  S
C800        C801   1.406       .  A
C800        H811   1.083       .  S
C801        C802   1.412       .  A
C802        C803   1.413       .  A
C802        H812   1.082       .  S
C803        C804   1.412       .  A
C804        H813   1.082       .  S
C805        C806   1.406       .  A
C805        H814   1.085       .  S
C806        C807   1.406       .  A
C807        H815   1.083       .  S
C816        C817   1.397       .  A
C816        C821   1.403       .  A
C816        H832   1.084       .  S
C817        C818   1.403       .  A
C817        H833   1.084       .  S
C818        C828   1.401       .  A
C818        C819   1.409       .  A
C819        C825   1.410       .  A
C819        C820   1.413       .  A
C820        C822   1.411       .  A
C820        C821   1.411       .  A
C821        C829   1.402       .  A
C822        C831   1.406       .  A
C822        C823   1.404       .  A
C823        C824   1.401       .  A
C823        H834   1.084       .  S
C824        C825   1.405       .  A
C824        H835   1.083       .  S
C825        C826   1.405       .  A
C826        C827   1.413       .  A
C826        H836   1.084       .  S
C827        C828   1.411       .  A
C828        H837   1.078       .  S
C829        C830   1.406       .  A
C829        H838   1.083       .  S
C830        C831   1.408       .  A
C831        H839   1.084       .  S
C840        C841   1.401       .  A
C840        C845   1.404       .  A
C840        H856   1.083       .  S
C841        C842   1.404       .  A
C841        H857   1.084       .  S
C842        C852   1.409       .  A
C842        C843   1.414       .  A
C843        C849   1.410       .  A
C843        C844   1.416       .  A
C844        C846   1.413       .  A
C844        C845   1.411       .  A
C845        C853   1.405       .  A
C846        C855   1.408       .  A
C846        C847   1.404       .  A
C847        C848   1.401       .  A
C847        H858   1.083       .  S
C848        C849   1.405       .  A
C848        H859   1.084       .  S
C849        C850   1.405       .  A
C850        C851   1.410       .  A
C850        H860   1.085       .  S
C851        C852   1.405       .  A
C852        H861   1.083       .  S
C853        C854   1.408       .  A
C853        H862   1.084       .  S
C854        C855   1.406       .  A
C855        H863   1.084       .  S
C864        C865   1.402       .  A
C864        C869   1.405       .  A
C864        H880   1.084       .  S
C865        C866   1.405       .  A
C865        H881   1.084       .  S
C866        C876   1.408       .  A
C866        C867   1.412       .  A
C867        C873   1.412       .  A
C867        C868   1.416       .  A
C868        C870   1.411       .  A
C868        C869   1.409       .  A
C869        C877   1.406       .  A
C870        C879   1.409       .  A
C870        C871   1.404       .  A
C871        C872   1.402       .  A
C871        H882   1.083       .  S
C872        C873   1.405       .  A
C872        H883   1.083       .  S
C873        C874   1.408       .  A
C874        C875   1.405       .  A
C874        H884   1.084       .  S
C875        C876   1.406       .  A
C876        H885   1.085       .  S
C877        C878   1.412       .  A
C877        H886   1.081       .  S
C878        C879   1.410       .  A
C879        H887   1.083       .  S
C888        C889   1.396       .  A
C888        C893   1.402       .  A
C888        H904   1.083       .  S
C889        C890   1.403       .  A
C889        H905   1.084       .  S
C890        C900   1.397       .  A
C890        C891   1.411       .  A
C891        C897   1.411       .  A
C891        C892   1.407       .  A
C892        C894   1.412       .  A
C892        C893   1.411       .  A
C893        C901   1.397       .  A
C894        C903   1.401       .  A
C894        C895   1.403       .  A
C895        C896   1.398       .  A
C895        H906   1.083       .  S
C896        C897   1.403       .  A
C896        H907   1.084       .  S
C897        C898   1.400       .  A
C898        C899   1.405       .  A
C898        H908   1.083       .  S
C899        C900   1.407       .  A
C900        H909   1.083       .  S
C901        C902   1.400       .  A
C901        H910   1.084       .  S
C902        C903   1.404       .  A
C903        H911   1.084       .  S
C912        C913   1.399       .  A
C912        C917   1.403       .  A
C912        H928   1.083       .  S
C913        C914   1.404       .  A
C913        H929   1.083       .  S
C914        C924   1.400       .  A
C914        C915   1.411       .  A
C915        C921   1.413       .  A
C915        C916   1.409       .  A
C916        C918   1.409       .  A
C916        C917   1.412       .  A
C917        C925   1.403       .  A
C918        C927   1.397       .  A
C918        C919   1.403       .  A
C919        C920   1.397       .  A
C919        H930   1.084       .  S
C920        C921   1.402       .  A
C920        H931   1.082       .  S
C921        C922   1.401       .  A
C922        C923   1.402       .  A
C922        H932   1.084       .  S
C923        C924   1.402       .  A
C924        H933   1.080       .  S
C925        C926   1.407       .  A
C925        H934   1.083       .  S
C926        C927   1.407       .  A
C927        H935   1.082       .  S
C936        C937   1.407       .  A
C936        C941   1.405       .  A
C936        H952   1.083       .  S
C937        C938   1.408       .  A
C937        H953   1.083       .  S
C938        C948   1.411       .  A
C938        C939   1.406       .  A
C939        C945   1.415       .  A
C939        C940   1.417       .  A
C940        C942   1.403       .  A
C940        C941   1.418       .  A
C941        C949   1.423       .  A
C942        C951   1.391       .  A
C942        C943   1.404       .  A
C943        C944   1.395       .  A
C943        H954   1.084       .  S
C944        C945   1.401       .  A
C944        H955   1.083       .  S
C945        C946   1.405       .  A
C946        C947   1.404       .  A
C946        H956   1.081       .  S
C947        C948   1.418       .  A
C948        H957   1.082       .  S
C949        C950   1.410       .  A
C949        H958   1.082       .  S
C950        C951   1.417       .  A
C951        H959   1.085       .  S
C960        C961   1.397       .  A
C960        C965   1.403       .  A
C960        H976   1.083       .  S
C961        C962   1.402       .  A
C961        H977   1.083       .  S
C962        C972   1.399       .  A
C962        C963   1.411       .  A
C963        C969   1.411       .  A
C963        C964   1.410       .  A
C964        C966   1.409       .  A
C964        C965   1.410       .  A
C965        C973   1.401       .  A
C966        C975   1.400       .  A
C966        C967   1.404       .  A
C967        C968   1.398       .  A
C967        H978   1.084       .  S
C968        C969   1.403       .  A
C968        H979   1.084       .  S
C969        C970   1.402       .  A
C970        C971   1.407       .  A
C970        H980   1.083       .  S
C971        C972   1.404       .  A
C972        H981   1.084       .  S
C973        C974   1.410       .  A
C973        H982   1.081       .  S
C974        C975   1.412       .  A
C975        H983   1.083       .  S
C984        C985   1.403       .  A
C984        C989   1.405       .  A
C984       H1000   1.083       .  S
C985        C986   1.406       .  A
C985       H1001   1.084       .  S
C986        C996   1.409       .  A
C986        C987   1.411       .  A
C987        C993   1.412       .  A
C987        C988   1.416       .  A
C988        C990   1.410       .  A
C988        C989   1.413       .  A
C989        C997   1.411       .  A
C990        C999   1.402       .  A
C990        C991   1.404       .  A
C991        C992   1.399       .  A
C991       H1002   1.083       .  S
C992        C993   1.403       .  A
C992       H1003   1.084       .  S
C993        C994   1.404       .  A
C994        C995   1.407       .  A
C994       H1004   1.084       .  S
C995        C996   1.411       .  A
C996       H1005   1.084       .  S
C997        C998   1.406       .  A
C997       H1006   1.085       .  S
C998        C999   1.408       .  A
C999       H1007   1.085       .  S
C1008      C1009   1.399       .  A
C1008      C1013   1.405       .  A
C1008      H1024   1.083       .  S
C1009      C1010   1.403       .  A
C1009      H1025   1.084       .  S
C1010      C1020   1.409       .  A
C1010      C1011   1.413       .  A
C1011      C1017   1.405       .  A
C1011      C1012   1.417       .  A
C1012      C1014   1.416       .  A
C1012      C1013   1.404       .  A
C1013      C1021   1.397       .  A
C1014      C1023   1.418       .  A
C1014      C1015   1.404       .  A
C1015      C1016   1.404       .  A
C1015      H1026   1.083       .  S
C1016      C1017   1.407       .  A
C1016      H1027   1.083       .  S
C1017      C1018   1.407       .  A
C1018      C1019   1.421       .  A
C1018      H1028   1.079       .  S
C1019      C1020   1.411       .  A
C1020      H1029   1.080       .  S
C1021      C1022   1.417       .  A
C1021      H1030   1.084       .  S
C1022      C1023   1.409       .  A
C1023      H1031   1.076       .  S
C1032      C1033   1.394       .  A
C1032      C1037   1.403       .  A
C1032      H1048   1.084       .  S
C1033      C1034   1.400       .  A
C1033      H1049   1.083       .  S
C1034      C1044   1.403       .  A
C1034      C1035   1.415       .  A
C1035      C1041   1.406       .  A
C1035      C1036   1.414       .  A
C1036      C1038   1.417       .  A
C1036      C1037   1.403       .  A
C1037      C1045   1.389       .  A
C1038      C1047   1.419       .  A
C1038      C1039   1.405       .  A
C1039      C1040   1.405       .  A
C1039      H1050   1.083       .  S
C1040      C1041   1.408       .  A
C1040      H1051   1.083       .  S
C1041      C1042   1.407       .  A
C1042      C1043   1.417       .  A
C1042      H1052   1.082       .  S
C1043      C1044   1.403       .  A
C1044      H1053   1.082       .  S
C1045      C1046   1.415       .  A
C1045      H1054   1.085       .  S
C1046      C1047   1.409       .  A
C1047      H1055   1.081       .  S
