geometry optimzed in LAMMPS
_audit_creation_date              2020-12-01 
_audit_creation_method            'lammps2cif' 
_symmetry_space_group_name_H-M    'P1' 
_symmetry_Int_Tables_number       1 
_symmetry_cell_setting            triclinic 
loop_ 
_symmetry_equiv_pos_as_xyz 
  x,y,z 
_cell_length_a                    36.36190286 
_cell_length_b                    37.67298653714147 
_cell_length_c                    38.18843640004756 
_cell_angle_alpha                 94.18946312585071 
_cell_angle_beta                  91.3386205105079 
_cell_angle_gamma                 89.73850477501318 
loop_ 
_atom_site_label 
_atom_site_type_symbol 
_atom_site_fract_x 
_atom_site_fract_y 
_atom_site_fract_z 
_atom_site_charge 
C1          C  0.08310218  0.09414698  0.10177617     0.86400
C2          C  0.10925952  0.11522169  0.07990503    -0.53900
C3          C  0.13087398  0.13877075  0.09834112     0.09300
C4          C  0.12525586  0.13900146  0.13890907     0.20300
C5          C  0.10985211  0.07664575  0.12736282    -0.54600
C6          C  0.13207562  0.09916253  0.14740072     0.09400
C7          C  0.06122848  0.12305892  0.12446383    -0.54100
C8          C  0.08301177  0.14719596  0.14416950     0.10000
H9          H  0.11127825  0.11185638  0.05153149     0.14500
H10         H  0.14320372  0.15834173  0.15437457     0.00200
H11         H  0.11482172  0.04854451  0.12592416     0.14800
H12         H  0.03148254  0.12520939  0.12330491     0.14600
C13         C  0.07064078  0.18286167  0.16515299     0.29900
C14         C  0.07227650  0.24961890  0.20115566     0.29900
C15         C  0.08659590  0.21303633  0.14644000    -0.06300
C16         C  0.03156773  0.19940728  0.17412661    -0.07100
C17         C  0.08904671  0.18553960  0.20144846    -0.07000
C18         C  0.08791195  0.24671440  0.16456425    -0.06300
C19         C  0.03240190  0.23376286  0.19309878    -0.07100
C20         C  0.08933896  0.21923439  0.21959144    -0.07000
C21         C  0.08165879  0.27057904  0.13959024    -0.32400
N22         N  0.07809234  0.25348443  0.10754359     0.14100
C23         C  0.07893559  0.21856485  0.11193003    -0.32400
H24         H  0.06921817  0.19838383  0.09234700     0.16100
C25         C  0.49588454  0.24337096  0.19892628    -0.31300
N26         N  0.47322982  0.21725801  0.18401031     0.12900
C27         C  0.49460563  0.19066216  0.16875259    -0.31300
C28         C  0.08400930  0.21373195  0.25424030    -0.31600
N29         N  0.08356119  0.17879944  0.25869293     0.13400
H30         H  0.07558326  0.23400189  0.27396148     0.16000
C31         C  0.08488060  0.16167484  0.22657336    -0.31600
H32         H  0.07612958  0.13463847  0.22116548     0.16000
H33         H  0.48405627  0.16654068  0.15508683     0.16000
H34         H  0.07274081  0.29753025  0.14518257     0.16100
H35         H  0.48643638  0.26781125  0.21247382     0.16000
C36         C  0.08619376  0.33709797  0.26540003     0.86400
C37         C  0.11344847  0.31519589  0.28657371    -0.53900
C38         C  0.13592874  0.29370254  0.26719345     0.09300
C39         C  0.12813904  0.29490257  0.22694245     0.20300
C40         C  0.10938808  0.35638670  0.23940379    -0.54600
C41         C  0.13260501  0.33548858  0.21991004     0.09400
C42         C  0.06408608  0.30832176  0.24187964    -0.54100
C43         C  0.08571002  0.28534542  0.22172975     0.10000
H44         H  0.11460402  0.31637014  0.31510844     0.14500
H45         H  0.14655035  0.27682702  0.21109854     0.00200
H46         H  0.10909149  0.38500503  0.23874660     0.14800
H47         H  0.03477159  0.30441648  0.24200442     0.14600
C48         C  0.22659915  0.06976167  0.20786140     0.29900
C49         C  0.16480441  0.08535049  0.16985838     0.29900
C50         C  0.23242350  0.08934279  0.17555739    -0.06300
C51         C  0.20603363  0.03706531  0.19260692    -0.07100
C52         C  0.19595116  0.08982685  0.22807320    -0.07000
C53         C  0.20166257  0.10097731  0.15891136    -0.06300
C54         C  0.17392153  0.04378723  0.17227973    -0.07100
C55         C  0.16388580  0.09715310  0.20872091    -0.07000
C56         C  0.21455831  0.12670047  0.13851013    -0.32400
N57         N  0.25153935  0.12347181  0.13518256     0.14100
C58         C  0.26244488  0.09925905  0.15772069    -0.32400
H59         H  0.28973534  0.08845261  0.16053378     0.16100
C60         C  0.15532223  0.01083881  0.16994288    -0.31300
N61         N  0.17502166  0.48657841  0.18779722     0.12900
C62         C  0.20511793  0.00293058  0.20226828    -0.31300
C63         C  0.13556040  0.09327051  0.23138996    -0.31600
N64         N  0.14855792  0.08891183  0.26421388     0.13400
H65         H  0.10734546  0.08818520  0.22347261     0.16000
C66         C  0.18505174  0.08402252  0.26140156    -0.31600
H67         H  0.20214961  0.07282861  0.28132984     0.16000
H68         H  0.22502479  0.48999344  0.21843757     0.16000
H69         H  0.19900936  0.14912065  0.13153448     0.16100
H70         H  0.12926442  0.50464856  0.15688214     0.16000
C71         C  0.32229370  0.13778181  0.06513510     0.86400
C72         C  0.34394204  0.16307956  0.09238104    -0.53900
C73         C  0.32201149  0.18357643  0.11437299     0.09300
C74         C  0.27963892  0.17815056  0.10483647     0.20300
C75         C  0.29663708  0.11735695  0.08824602    -0.54600
C76         C  0.27430596  0.13824073  0.10914051     0.09400
C77         C  0.29706022  0.16223168  0.04441802    -0.54100
C78         C  0.27317500  0.18227438  0.06411997     0.10000
H79         H  0.37332602  0.16230005  0.09695455     0.14500
H80         H  0.26114411  0.19497061  0.12186218     0.00200
H81         H  0.29690974  0.08855933  0.08872326     0.14800
H82         H  0.29635395  0.16135488  0.01600834     0.14600
C83         C  0.09811306  0.13193244  0.34252707     0.86400
C84         C  0.07664635  0.15411019  0.31597209    -0.53900
C85         C  0.09777281  0.16387122  0.28952360     0.09300
C86         C  0.13766461  0.15179270  0.29169136     0.20300
C87         C  0.11449143  0.10080331  0.31885078    -0.54600
C88         C  0.13506652  0.11169935  0.29259698     0.09400
C89         C  0.13143355  0.15567794  0.35495727    -0.54100
C90         C  0.15258744  0.16583782  0.32802573     0.10000
H91         H  0.04744927  0.15965627  0.31568553     0.14500
H92         H  0.15400052  0.15994969  0.26938836     0.00200
H93         H  0.10876605  0.07287157  0.32151373     0.14800
H94         H  0.13641240  0.16381909  0.38224123     0.14600
C95         C  0.33614711  0.23535329  0.21725388     0.29900
C96         C  0.33498747  0.20170653  0.15076780     0.29900
C97         C  0.31932536  0.25592679  0.18806702    -0.06300
C98         C  0.37551344  0.22712198  0.20140371    -0.07100
C99         C  0.31939612  0.19830792  0.21346271    -0.07000
C100        C  0.31860217  0.23872496  0.15443809    -0.06300
C101        C  0.37477801  0.20934901  0.16693004    -0.07100
C102        C  0.31895865  0.18114593  0.17971264    -0.07000
C103        C  0.32546553  0.26452901  0.13178269    -0.32400
N104        N  0.32862753  0.29671133  0.14913176     0.14100
C105        C  0.32688033  0.29118079  0.18347217    -0.32400
H106        H  0.33630583  0.31032977  0.20416728     0.16100
C107        C  0.41121591  0.20389788  0.15752678    -0.31300
N108        N  0.43391812  0.21777646  0.18407757     0.12900
C109        C  0.41257556  0.23205865  0.21068144    -0.31300
C110        C  0.32617100  0.14561417  0.18412704    -0.31600
N111        N  0.32937230  0.13985397  0.21843675     0.13400
H112        H  0.33395423  0.12625217  0.16333852     0.16000
C113        C  0.32676934  0.17207495  0.23602078    -0.31600
H114        H  0.33659110  0.17711943  0.26261864     0.16000
H115        H  0.42330317  0.24462919  0.23513186     0.16000
H116        H  0.33440344  0.25934617  0.10526421     0.16100
H117        H  0.42059717  0.19121817  0.13301837     0.16000
C118        C  0.30829774  0.37923620  0.10001130     0.86400
C119        C  0.29115090  0.35336017  0.07093479    -0.53900
C120        C  0.27275689  0.32634151  0.08344311     0.09300
C121        C  0.27249771  0.32676997  0.12312214     0.20300
C122        C  0.27632489  0.39112605  0.12423454    -0.54600
C123        C  0.25712981  0.36325396  0.13585561     0.09400
C124        C  0.33241727  0.35453101  0.12241698    -0.54100
C125        C  0.31286875  0.32720837  0.13425005     0.10000
H126        H  0.29429111  0.35552811  0.04294144     0.14500
H127        H  0.25737434  0.30377873  0.13241524     0.00200
H128        H  0.27044148  0.41875175  0.13116620     0.14800
H129        H  0.36181746  0.35634588  0.12707612     0.14600
C130        C  0.31525547  0.05365269  0.26366541     0.86400
C131        C  0.29951351  0.07758053  0.29449215    -0.53900
C132        C  0.28000213  0.10556245  0.28416072     0.09300
C133        C  0.27653833  0.10715817  0.24466138     0.20300
C134        C  0.28247912  0.04276812  0.23903292    -0.54600
C135        C  0.26148115  0.07073454  0.23011120     0.09400
C136        C  0.33732989  0.08032252  0.24262479    -0.54100
C137        C  0.31613295  0.10834909  0.23296402     0.10000
H138        H  0.30490807  0.07369184  0.32206148     0.14500
H139        H  0.25998334  0.13032178  0.23688864     0.00200
H140        H  0.27771826  0.01574499  0.22868109     0.14800
H141        H  0.36635367  0.07864691  0.23702970     0.14600
C142        C  0.22345662  0.36375840  0.15858661     0.29900
C143        C  0.16383883  0.35088778  0.19824654     0.29900
C144        C  0.23101485  0.34351587  0.19092261    -0.06300
C145        C  0.20304235  0.39722654  0.17303463    -0.07100
C146        C  0.19205933  0.34329359  0.13951569    -0.07000
C147        C  0.20127861  0.33691863  0.21066057    -0.06300
C148        C  0.17222902  0.39157369  0.19393410    -0.07100
C149        C  0.16128547  0.33690201  0.15955809    -0.07000
C150        C  0.21547075  0.32679520  0.24192448    -0.32400
N151        N  0.25257572  0.32127294  0.24004163     0.14100
C152        C  0.26217961  0.33550819  0.21002482    -0.32400
H153        H  0.28933313  0.34397641  0.20429924     0.16100
C154        C  0.15566587  0.42523486  0.19935147    -0.31300
N155        N  0.17451307  0.44916950  0.18134616     0.12900
C156        C  0.20276377  0.43202770  0.16512100    -0.31300
C157        C  0.13166426  0.33881309  0.13655610    -0.31600
N158        N  0.14288649  0.34228062  0.10347704     0.13400
H159        H  0.10373872  0.34373714  0.14434953     0.16000
C160        C  0.17935390  0.34765213  0.10597038    -0.31600
H161        H  0.19510671  0.35845622  0.08565081     0.16000
H162        H  0.22193600  0.44503855  0.14926970     0.16000
H163        H  0.20036540  0.33294837  0.26529018     0.16100
H164        H  0.13197053  0.43208979  0.21499244     0.16000
C165        C  0.08767784  0.30170355  0.02465427     0.86400
C166        C  0.06804250  0.27886482  0.05089887    -0.53900
C167        C  0.09068297  0.26824380  0.07670601     0.09300
C168        C  0.13030683  0.27999333  0.07447205     0.20300
C169        C  0.10567712  0.33204067  0.04885277    -0.54600
C170        C  0.12764632  0.32022898  0.07472187     0.09400
C171        C  0.12059832  0.27789152  0.01113899    -0.54100
C172        C  0.14322991  0.26670985  0.03767427     0.10000
H173        H  0.03899939  0.27331798  0.05177128     0.14500
H174        H  0.14776503  0.27108564  0.09648010     0.00200
H175        H  0.09995204  0.36014930  0.04685886     0.14800
H176        H  0.12480350  0.27035877  0.98364847     0.14600
C177        C  0.33055452  0.29799935  0.30447462     0.86400
C178        C  0.34855872  0.27308400  0.27567765    -0.53900
C179        C  0.32471036  0.25499825  0.25314334     0.09300
C180        C  0.28318943  0.26195152  0.26388421     0.20300
C181        C  0.30244584  0.32131326  0.28526980    -0.54600
C182        C  0.27768925  0.30320873  0.26374602     0.09400
C183        C  0.30541697  0.27298949  0.32453911    -0.54100
C184        C  0.27997596  0.25385755  0.30396718     0.10000
H185        H  0.37801602  0.27119735  0.27253235     0.14500
H186        H  0.26316285  0.24701651  0.24611090     0.00200
H187        H  0.30231310  0.35019489  0.28829555     0.14800
H188        H  0.30602735  0.27150302  0.35261207     0.14600
C189        C  0.17821992  0.24339700  0.03584311     0.29900
C190        C  0.24011917  0.20293453  0.04816663     0.29900
C191        C  0.17261905  0.20903600  0.05340576    -0.06300
C192        C  0.19958055  0.23083357  0.00278556    -0.07100
C193        C  0.20898598  0.26163300  0.05784723    -0.07000
C194        C  0.20312761  0.18826711  0.05890089    -0.06300
C195        C  0.23176095  0.21010363  0.00840327    -0.07100
C196        C  0.24031978  0.24104670  0.06434704    -0.07000
C197        C  0.19025518  0.15756303  0.07171429    -0.32400
N198        N  0.15426569  0.16217977  0.08014879     0.14100
C199        C  0.14283854  0.19181885  0.06512396    -0.32400
H200        H  0.11494253  0.19882243  0.05949807     0.16100
C201        C  0.24919104  0.20726425  0.47607401    -0.31300
N202        N  0.22938067  0.22588348  0.45256655     0.12900
C203        C  0.19945724  0.24021159  0.46882111    -0.31300
C204        C  0.26937072  0.26411974  0.06520474    -0.31600
N205        N  0.25735425  0.29755755  0.06202745     0.13400
H206        H  0.29766046  0.25628321  0.06228950     0.16000
C207        C  0.22101668  0.29574497  0.05534334    -0.31600
H208        H  0.20507750  0.31692149  0.04485334     0.16000
H209        H  0.17861454  0.25563483  0.45611772     0.16000
H210        H  0.20592149  0.13343401  0.07402670     0.16100
H211        H  0.27402004  0.19250544  0.46981525     0.16000
C212        C  0.18710132  0.18931999  0.32941572     0.29900
C213        C  0.24812701  0.23076492  0.31855736     0.29900
C214        C  0.18099653  0.22091287  0.30782771    -0.06300
C215        C  0.20624902  0.20593434  0.36283820    -0.07100
C216        C  0.21920701  0.17047498  0.31137104    -0.07000
C217        C  0.21117116  0.24144618  0.30232900    -0.06300
C218        C  0.23760969  0.22746951  0.35829520    -0.07100
C219        C  0.25036844  0.19111061  0.30584744    -0.07000
C220        C  0.19749725  0.27225715  0.29083631    -0.32400
N221        N  0.16075873  0.26912988  0.28353587     0.14100
C222        C  0.15038401  0.23929583  0.29811017    -0.32400
H223        H  0.12319349  0.23385662  0.30639533     0.16100
C224        C  0.25128879  0.23620119  0.39249885    -0.31300
N225        N  0.23000142  0.21985255  0.41566724     0.12900
C226        C  0.20296675  0.20161321  0.39777880    -0.31300
C227        C  0.27931174  0.16750353  0.30592384    -0.31600
N228        N  0.26684827  0.13382520  0.30749801     0.13400
H229        H  0.30785935  0.17469658  0.30903997     0.16000
C230        C  0.23072883  0.13619918  0.31376561    -0.31600
H231        H  0.21429310  0.11472780  0.32207106     0.16000
H232        H  0.18268694  0.18639249  0.41021348     0.16000
H233        H  0.21228187  0.29621532  0.29758146     0.16100
H234        H  0.27464462  0.25290438  0.40005122     0.16000
O235        O  0.48794746  0.00006511  0.99973712    -0.80200
O236        O  0.40896882  0.00885226  0.38649496    -0.80300
O237        O  0.02209494  0.00942720  0.42102405    -0.80300
O238        O  0.38553383  0.00992395  0.45385671    -0.80200
O239        O  0.47899771  0.02677478  0.38593668    -0.80300
O240        O  0.41823381  0.00662427  0.00187536    -0.80300
O241        O  0.37087164  0.96743571  0.39345732    -0.79700
O242        O  0.03221259  0.47044069  0.47298898    -0.80300
C243        C  0.02129469  0.99444673  0.49577374     1.09400
C244        C  0.38134184  0.99183084  0.37533788     1.09300
C245        C  0.00869634  0.03288078  0.40272997     1.09500
C246        C  0.39538547  0.02301226  0.48384624     1.09300
O247        O  0.40964080  0.43033175  0.98288161    -0.80200
O248        O  0.49903593  0.45186711  0.36827559    -0.80300
O249        O  0.99098313  0.41117181  0.43179562    -0.80300
O250        O  0.41207080  0.41185287  0.41862999    -0.80200
O251        O  0.42755307  0.43308901  0.36893147    -0.80300
O252        O  0.48472101  0.42301977  0.98798756    -0.80300
O253        O  0.35671996  0.44471033  0.46085558    -0.80200
O254        O  0.04729942  0.44330056  0.40341020    -0.80300
Co255      Co  0.45053778  0.46558755  0.48921393     1.51500
Co256      Co  0.45324657  0.48044388  0.38150941     1.51700
Co257      Co  0.00406938  0.46072418  0.42615353     1.51600
Co258      Co  0.40018595  0.46072104  0.43782641     1.51500
O259        O  0.45303579  0.47646468  0.43574363    -1.42200
C260        C  0.37564610  0.43638493  0.48749570     1.09400
C261        C  0.03101880  0.43854157  0.37361341     1.09500
C262        C  0.99414493  0.40177394  0.46244494     1.09400
C263        C  0.41624542  0.40735558  0.38585175     1.09400
C264        C  0.36413518  0.32078847  0.36220031    -0.26400
C265        C  0.35935446  0.32181040  0.32544858    -0.14500
C266        C  0.38097111  0.34720912  0.30881016     0.36100
C267        C  0.40176718  0.37263418  0.32910488    -0.25900
C268        C  0.40246799  0.37417805  0.36590131    -0.15100
C269        C  0.38529389  0.34646899  0.38233075     0.37200
N270        N  0.38842112  0.34461245  0.41961449    -0.89400
H271        H  0.35094799  0.30075793  0.37620047     0.18300
H272        H  0.41604799  0.39265518  0.31565486     0.18300
N273        N  0.38221075  0.34903257  0.27141363    -0.88400
H274        H  0.40004297  0.31999460  0.42460242     0.35700
H275        H  0.36195660  0.34566872  0.42977610     0.40800
H276        H  0.35632154  0.35410862  0.26067627     0.40400
H277        H  0.39294635  0.32552005  0.25965388     0.35300
C278        C  0.05301128  0.36937415  0.96230471    -0.26400
C279        C  0.01524958  0.36936848  0.96894949    -0.14500
C280        C  0.00009551  0.34051453  0.98500129     0.36100
C281        C  0.02371635  0.31458254  0.99764688    -0.25900
C282        C  0.06248733  0.31813714  0.99703601    -0.15100
C283        C  0.07681558  0.34399369  0.97594658     0.37200
N284        N  0.11580913  0.34651544  0.97128145    -0.89400
H285        H  0.06441510  0.39090889  0.94871518     0.18300
H286        H  0.01084229  0.29302816  0.00964949     0.18300
N287        N  0.96112479  0.33684572  0.48936537    -0.88400
H288        H  0.12201940  0.36871358  0.95762749     0.35700
H289        H  0.12371063  0.32429196  0.95520302     0.40800
H290        H  0.44633979  0.35711383  0.47811971     0.40400
H291        H  0.45613261  0.33922301  0.51628879     0.35300
C292        C  0.33019583  0.98849402  0.33122932    -0.26400
C293        C  0.36678376  0.99662000  0.33978295    -0.14500
C294        C  0.38907594  0.01077278  0.31438891     0.36100
C295        C  0.37276892  0.02325090  0.28418174    -0.25900
C296        C  0.33446418  0.02252527  0.27953369    -0.15100
C297        C  0.31372607  0.00072816  0.30081778     0.37200
N298        N  0.27501034  0.99522500  0.29420751    -0.89400
H299        H  0.31372448  0.97518878  0.34957223     0.18300
H300        H  0.38999141  0.03688367  0.26688310     0.18300
N301        N  0.42809118  0.01391501  0.31981336    -0.88400
H302        H  0.26321772  0.98254044  0.31464153     0.35700
H303        H  0.27236585  0.97739927  0.27202045     0.40800
H304        H  0.43512477  0.04074226  0.31924908     0.40400
H305        H  0.44088335  0.99977598  0.29886095     0.35300
C306        C  0.36513028  0.41005821  0.08036636    -0.26400
C307        C  0.32670751  0.40885628  0.08193334    -0.14500
C308        C  0.30571536  0.42763800  0.05754297     0.36100
C309        C  0.32236604  0.43841127  0.02739934    -0.25900
C310        C  0.35988968  0.43225886  0.02225918    -0.15100
C311        C  0.38208066  0.42142234  0.05065111     0.37200
N312        N  0.42154001  0.42009079  0.04862784    -0.89400
H313        H  0.38226238  0.39956997  0.10058425     0.18300
H314        H  0.30547997  0.44942350  0.50709474     0.18300
N315        N  0.26679532  0.43194237  0.06122056    -0.88400
H316        H  0.43340282  0.40962405  0.07086606     0.35700
H317        H  0.43085212  0.44631148  0.04867828     0.40800
H318        H  0.26074403  0.45911935  0.06150168     0.40400
H319        H  0.25368830  0.41895032  0.53911132     0.35300
C320        C  0.06843540  0.06454210  0.40424112    -0.26400
C321        C  0.03009509  0.06572665  0.39859376    -0.14500
C322        C  0.01443679  0.09684428  0.38591036     0.36100
C323        C  0.03742196  0.12264064  0.37356396    -0.25900
C324        C  0.07570765  0.11695838  0.37158455    -0.15100
C325        C  0.09142369  0.09023396  0.39145254     0.37200
N326        N  0.13072640  0.08692152  0.39503385    -0.89400
H327        H  0.08086125  0.54199571  0.41610016     0.18300
H328        H  0.02447833  0.14553257  0.36311596     0.18300
N329        N  0.47549795  0.10272674  0.38436586    -0.88400
H330        H  0.13778819  0.06447193  0.40831701     0.35700
H331        H  0.14009841  0.10888751  0.41099984     0.40800
H332        H  0.46490547  0.09937198  0.40912719     0.40400
H333        H  0.46345920  0.08421079  0.36596653     0.35300
C334        C  0.38167356  0.10716300  0.04282400    -0.26400
C335        C  0.34320528  0.11126238  0.04053925    -0.14500
C336        C  0.32315726  0.08826701  0.01589263     0.36100
C337        C  0.34125052  0.06154666  0.99547935    -0.25900
C338        C  0.37902467  0.05616939  0.99965240    -0.15100
C339        C  0.39968423  0.07976697  0.02281971     0.37200
N340        N  0.43889532  0.07548441  0.02625038    -0.89400
H341        H  0.39809660  0.12431026  0.06068469     0.18300
H342        H  0.32517953  0.04341255  0.97793829     0.18300
N343        N  0.28391226  0.09099514  0.01249272    -0.88400
H344        H  0.45003747  0.09440856  0.04487467     0.35700
H345        H  0.44995074  0.08079743  0.50209590     0.40800
H346        H  0.27719868  0.09543569  0.98639751     0.40400
H347        H  0.27249719  0.06666800  0.01805016     0.35300
C348        C  0.01993457  0.39155321  0.32648573    -0.26400
C349        C  0.04519459  0.41426979  0.34535781    -0.14500
C350        C  0.08232245  0.41301290  0.33692969     0.36100
C351        C  0.09363572  0.38844485  0.31009890    -0.25900
C352        C  0.06873523  0.36456294  0.29141743    -0.15100
C353        C  0.03124034  0.36648504  0.30002273     0.37200
N354        N  0.00451293  0.34281761  0.28334653    -0.89400
H355        H  0.99109596  0.39241092  0.33313886     0.18300
H356        H  0.12263857  0.38726892  0.30415432     0.18300
N357        N  0.10826219  0.43667457  0.35541452    -0.88400
H358        H  0.98400680  0.35803192  0.27189401     0.35700
H359        H  0.99242463  0.32871482  0.30266155     0.40800
H360        H  0.10110882  0.46265073  0.34995669     0.40400
H361        H  0.13475205  0.43215081  0.34595061     0.35300
C362        C  0.05004075  0.07888455  0.04376775    -0.26400
C363        C  0.06078747  0.06782785  0.07690467    -0.14500
C364        C  0.05721712  0.03114163  0.08233699     0.36100
C365        C  0.05069904  0.00638388  0.05337914    -0.25900
C366        C  0.04455753  0.01745505  0.01946631    -0.15100
C367        C  0.04324882  0.05436621  0.01500708     0.37200
N368        N  0.03376307  0.06701352  0.48131470    -0.89400
H369        H  0.04905757  0.10705923  0.03975685     0.18300
H370        H  0.04688549  0.47854909  0.05780332     0.18300
N371        N  0.05703694  0.01944561  0.11732207    -0.88400
H372        H  0.03571061  0.09474078  0.48198260     0.35700
H373        H  0.00617711  0.06095040  0.47564540     0.40800
H374        H  0.03460099  0.03155672  0.13005870     0.40400
H375        H  0.05290410  0.49196209  0.11681048     0.35300
C376        C  0.08311095  0.09415924  0.60175935     0.86400
C377        C  0.10926067  0.11522288  0.57987271    -0.53900
C378        C  0.13088419  0.13877005  0.59829951     0.09300
C379        C  0.12528178  0.13900900  0.63887221     0.20300
C380        C  0.10986831  0.07665504  0.62733969    -0.54600
C381        C  0.13209772  0.09917015  0.64737319     0.09400
C382        C  0.06125058  0.12307547  0.62444963    -0.54100
C383        C  0.08304226  0.14720992  0.64414609     0.10000
H384        H  0.11126217  0.11185390  0.55149724     0.14500
H385        H  0.14323341  0.15835156  0.65432999     0.00200
H386        H  0.11482312  0.04855271  0.62591412     0.14800
H387        H  0.03150473  0.12522872  0.62330062     0.14600
C388        C  0.07067437  0.18287501  0.66513208     0.29900
C389        C  0.07227151  0.24963725  0.70112580     0.29900
C390        C  0.08661480  0.21305434  0.64641805    -0.06300
C391        C  0.03159050  0.19939802  0.67410859    -0.07100
C392        C  0.08909101  0.18556938  0.70142062    -0.07000
C393        C  0.08789426  0.24673974  0.66453366    -0.06300
C394        C  0.03240683  0.23375912  0.69307089    -0.07100
C395        C  0.08935205  0.21926463  0.71956270    -0.07000
C396        C  0.08159112  0.27058879  0.63955569    -0.32400
N397        N  0.07806081  0.25347952  0.60751535     0.14100
C398        C  0.07895654  0.21856398  0.61190748    -0.32400
H399        H  0.06925770  0.19836905  0.59233040     0.16100
C400        C  0.49588632  0.24335828  0.69888345    -0.31300
N401        N  0.47324336  0.21722786  0.68398424     0.12900
C402        C  0.49463089  0.19063218  0.66874073    -0.31300
C403        C  0.08401683  0.21376096  0.75421012    -0.31600
N404        N  0.08359792  0.17882884  0.75866275     0.13400
H405        H  0.07558771  0.23402739  0.77393389     0.16000
C406        C  0.08494868  0.16170381  0.72654535    -0.31600
H407        H  0.07621730  0.13466332  0.72113479     0.16000
H408        H  0.48409207  0.16649848  0.65508984     0.16000
H409        H  0.07261468  0.29752622  0.64513560     0.16100
H410        H  0.48642768  0.26780494  0.71241101     0.16000
C411        C  0.08618789  0.33710146  0.76538012     0.86400
C412        C  0.11342722  0.31518289  0.78655765    -0.53900
C413        C  0.13591861  0.29369737  0.76717972     0.09300
C414        C  0.12814096  0.29491036  0.72692742     0.20300
C415        C  0.10940445  0.35639441  0.73940114    -0.54600
C416        C  0.13262644  0.33549673  0.71990994     0.09400
C417        C  0.06408126  0.30833775  0.74184621    -0.54100
C418        C  0.08570690  0.28536413  0.72169784     0.10000
H419        H  0.11456998  0.31634779  0.81509230     0.14500
H420        H  0.14655301  0.27683488  0.71108453     0.00200
H421        H  0.10911869  0.38501426  0.73875619     0.14800
H422        H  0.03476756  0.30442571  0.74197283     0.14600
C423        C  0.22658661  0.06979120  0.70790915     0.29900
C424        C  0.16480972  0.08535848  0.66985942     0.29900
C425        C  0.23242785  0.08933940  0.67558695    -0.06300
C426        C  0.20600172  0.03709088  0.69268569    -0.07100
C427        C  0.19594417  0.08988994  0.72809165    -0.07000
C428        C  0.20167351  0.10094944  0.65890909    -0.06300
C429        C  0.17391038  0.04380274  0.67232920    -0.07100
C430        C  0.16388150  0.09720025  0.70871757    -0.07000
C431        C  0.21456118  0.12666118  0.63849872    -0.32400
N432        N  0.25154675  0.12347676  0.63522142     0.14100
C433        C  0.26245723  0.09928493  0.65778095    -0.32400
H434        H  0.28975205  0.08849806  0.66061814     0.16100
C435        C  0.15534976  0.01083693  0.66991377    -0.31300
N436        N  0.17503450  0.48658269  0.68778808     0.12900
C437        C  0.20509974  0.00294482  0.70231602    -0.31300
C438        C  0.13554850  0.09329185  0.73137420    -0.31600
N439        N  0.14853185  0.08892939  0.76420206     0.13400
H440        H  0.10734667  0.08815468  0.72343646     0.16000
C441        C  0.18502916  0.08407534  0.76141056    -0.31600
H442        H  0.20211788  0.07287430  0.78134100     0.16000
H443        H  0.22499396  0.49000700  0.71849831     0.16000
H444        H  0.19899749  0.14905309  0.63148363     0.16100
H445        H  0.12933347  0.50462539  0.65678273     0.16000
C446        C  0.32226432  0.13774428  0.56515098     0.86400
C447        C  0.34392749  0.16304961  0.59238620    -0.53900
C448        C  0.32200883  0.18356552  0.61437698     0.09300
C449        C  0.27963587  0.17814431  0.60484704     0.20300
C450        C  0.29661574  0.11733882  0.58827850    -0.54600
C451        C  0.27430125  0.13823558  0.60917001     0.09400
C452        C  0.29703408  0.16218622  0.54442641    -0.54100
C453        C  0.27317078  0.18225595  0.56412547     0.10000
H454        H  0.37331013  0.16225064  0.59696423     0.14500
H455        H  0.26114592  0.19497378  0.62186930     0.00200
H456        H  0.29688170  0.08854237  0.58877135     0.14800
H457        H  0.29631371  0.16128720  0.51601508     0.14600
C458        C  0.09809618  0.13196601  0.84250553     0.86400
C459        C  0.07664857  0.15416385  0.81595267    -0.53900
C460        C  0.09778895  0.16390909  0.78950495     0.09300
C461        C  0.13767061  0.15180514  0.79167740     0.20300
C462        C  0.11445147  0.10082926  0.81882485    -0.54600
C463        C  0.13503559  0.11171755  0.79257637     0.09400
C464        C  0.13143351  0.15568950  0.85493956    -0.54100
C465        C  0.15260105  0.16583639  0.82801111     0.10000
H466        H  0.04745597  0.15973275  0.81566686     0.14500
H467        H  0.15401764  0.15995162  0.76937737     0.00200
H468        H  0.10870974  0.07289988  0.82148341     0.14800
H469        H  0.13640812  0.16383266  0.88222395     0.14600
C470        C  0.33616790  0.23534726  0.71726953     0.29900
C471        C  0.33499310  0.20169703  0.65077454     0.29900
C472        C  0.31934290  0.25591813  0.68808508    -0.06300
C473        C  0.37553148  0.22710544  0.70140560    -0.07100
C474        C  0.31940978  0.19830138  0.71347596    -0.07000
C475        C  0.31861026  0.23871714  0.65445514    -0.06300
C476        C  0.37478630  0.20933028  0.66693080    -0.07100
C477        C  0.31897316  0.18113795  0.67972315    -0.07000
C478        C  0.32545836  0.26452436  0.63180103    -0.32400
N479        N  0.32862443  0.29670486  0.64915323     0.14100
C480        C  0.32688503  0.29117470  0.68349379    -0.32400
H481        H  0.33630556  0.31032549  0.70418914     0.16100
C482        C  0.41122058  0.20385646  0.65752253    -0.31300
N483        N  0.43393176  0.21773183  0.68406692     0.12900
C484        C  0.41259815  0.23202740  0.71067287    -0.31300
C485        C  0.32620334  0.14560962  0.68413522    -0.31600
N486        N  0.32939483  0.13984597  0.71844393     0.13400
H487        H  0.33400395  0.12625416  0.66334632     0.16000
C488        C  0.32678399  0.17206551  0.73603063    -0.31600
H489        H  0.33661487  0.17710865  0.76262545     0.16000
H490        H  0.42333423  0.24460356  0.73511762     0.16000
H491        H  0.33436341  0.25934841  0.60527201     0.16100
H492        H  0.42059273  0.19116805  0.63301422     0.16000
C493        C  0.30833767  0.37920994  0.60000036     0.86400
C494        C  0.29120940  0.35331826  0.57092937    -0.53900
C495        C  0.27279426  0.32631933  0.58344514     0.09300
C496        C  0.27251476  0.32676828  0.62312499     0.20300
C497        C  0.27635118  0.39111797  0.62420285    -0.54600
C498        C  0.25715018  0.36325756  0.63583796     0.09400
C499        C  0.33244274  0.35451692  0.62243022    -0.54100
C500        C  0.31288038  0.32720604  0.63427067     0.10000
H501        H  0.29437106  0.35546507  0.54293537     0.14500
H502        H  0.25738184  0.30378497  0.63242262     0.00200
H503        H  0.27046325  0.41874784  0.63111124     0.14800
H504        H  0.36184306  0.35632637  0.62709269     0.14600
C505        C  0.31527448  0.05364453  0.76366366     0.86400
C506        C  0.29957532  0.07758521  0.79450717    -0.53900
C507        C  0.28006169  0.10557659  0.78419239     0.09300
C508        C  0.27656124  0.10716813  0.74469515     0.20300
C509        C  0.28246809  0.04277717  0.73906159    -0.54600
C510        C  0.26147129  0.07075203  0.73016060     0.09400
C511        C  0.33734034  0.08030040  0.74260269    -0.54100
C512        C  0.31614820  0.10833957  0.73296376     0.10000
H513        H  0.30499480  0.07369259  0.82207160     0.14500
H514        H  0.26000911  0.13033778  0.73693413     0.00200
H515        H  0.27769371  0.01575842  0.72870286     0.14800
H516        H  0.36635931  0.07860967  0.73698795     0.14600
C517        C  0.22348337  0.36377246  0.65857968     0.29900
C518        C  0.16387044  0.35089169  0.69824878     0.29900
C519        C  0.23105191  0.34354753  0.69092954    -0.06300
C520        C  0.20306261  0.39723588  0.67301876    -0.07100
C521        C  0.19208429  0.34329975  0.63951553    -0.07000
C522        C  0.20131564  0.33694107  0.71066757    -0.06300
C523        C  0.17224706  0.39157847  0.69391552    -0.07100
C524        C  0.16132501  0.33688601  0.65956927    -0.07000
C525        C  0.21550487  0.32681604  0.74193099    -0.32400
N526        N  0.25261238  0.32131459  0.74005551     0.14100
C527        C  0.26221819  0.33555858  0.71004215    -0.32400
H528        H  0.28937358  0.34402572  0.70431670     0.16100
C529        C  0.15568477  0.42523843  0.69933226    -0.31300
N530        N  0.17453893  0.44917548  0.68133575     0.12900
C531        C  0.20279895  0.43204065  0.66512103    -0.31300
C532        C  0.13168937  0.33876415  0.63658410    -0.31600
N533        N  0.14288311  0.34226936  0.60350300     0.13400
H534        H  0.10376551  0.34364629  0.64439804     0.16000
C535        C  0.17934760  0.34767373  0.60597999    -0.31600
H536        H  0.19507696  0.35849862  0.58565504     0.16000
H537        H  0.22198974  0.44505771  0.64929348     0.16000
H538        H  0.20039326  0.33295781  0.76529392     0.16100
H539        H  0.13198855  0.43209243  0.71497226     0.16000
C540        C  0.08768150  0.30170761  0.52465924     0.86400
C541        C  0.06804387  0.27886361  0.55088874    -0.53900
C542        C  0.09067528  0.26823900  0.57669354     0.09300
C543        C  0.13030279  0.27999143  0.57448015     0.20300
C544        C  0.10567042  0.33204541  0.54886951    -0.54600
C545        C  0.12763871  0.32022805  0.57474090     0.09400
C546        C  0.12061094  0.27790109  0.51114887    -0.54100
C547        C  0.14324306  0.26672095  0.53768459     0.10000
H548        H  0.03900262  0.27331008  0.55175750     0.14500
H549        H  0.14775270  0.27107736  0.59649108     0.00200
H550        H  0.09993715  0.36015352  0.54688160     0.14800
H551        H  0.12481924  0.27036376  0.48366009     0.14600
C552        C  0.33056715  0.29802059  0.80450004     0.86400
C553        C  0.34857570  0.27309623  0.77570399    -0.53900
C554        C  0.32472970  0.25501023  0.75316128     0.09300
C555        C  0.28320722  0.26198002  0.76389485     0.20300
C556        C  0.30247449  0.32133990  0.78528598    -0.54600
C557        C  0.27771981  0.30324093  0.76375704     0.09400
C558        C  0.30541680  0.27301362  0.82455545    -0.54100
C559        C  0.27998011  0.25388561  0.80397692     0.10000
H560        H  0.37803387  0.27119535  0.77256954     0.14500
H561        H  0.26317993  0.24705151  0.74611731     0.00200
H562        H  0.30235260  0.35022184  0.78830825     0.14800
H563        H  0.30602321  0.27151129  0.85262604     0.14600
C564        C  0.17823993  0.24341040  0.53584987     0.29900
C565        C  0.24013198  0.20293201  0.54816402     0.29900
C566        C  0.17263148  0.20903423  0.55337776    -0.06300
C567        C  0.19961732  0.23087139  0.50279273    -0.07100
C568        C  0.20899900  0.26162778  0.55788028    -0.07000
C569        C  0.20313663  0.18826096  0.55887168    -0.06300
C570        C  0.23179171  0.21013050  0.50840584    -0.07100
C571        C  0.24033620  0.24103525  0.56436268    -0.07000
C572        C  0.19026377  0.15755477  0.57167532    -0.32400
N573        N  0.15427196  0.16217024  0.58009663     0.14100
C574        C  0.14284753  0.19181360  0.56507858    -0.32400
H575        H  0.11495283  0.19882619  0.55945736     0.16100
C576        C  0.24916663  0.20724770  0.97607338    -0.31300
N577        N  0.22935460  0.22586353  0.95256420     0.12900
C578        C  0.19942410  0.24017941  0.96881495    -0.31300
C579        C  0.26939085  0.26410350  0.56519957    -0.31600
N580        N  0.25737448  0.29754247  0.56203685     0.13400
H581        H  0.29767688  0.25626284  0.56224862     0.16000
C582        C  0.22103142  0.29573948  0.55538796    -0.31600
H583        H  0.20509032  0.31692049  0.54491018     0.16000
H584        H  0.17858602  0.25560840  0.95611225     0.16000
H585        H  0.20593353  0.13342926  0.57399965     0.16100
H586        H  0.27400795  0.19250788  0.96981941     0.16000
C587        C  0.18711748  0.18931943  0.82940176     0.29900
C588        C  0.24813141  0.23078718  0.81856053     0.29900
C589        C  0.18101473  0.22089744  0.80778561    -0.06300
C590        C  0.20623400  0.20595920  0.86282804    -0.07100
C591        C  0.21924797  0.17047606  0.81139415    -0.07000
C592        C  0.21118370  0.24144347  0.80229613    -0.06300
C593        C  0.23758145  0.22751477  0.85829548    -0.07100
C594        C  0.25040249  0.19112238  0.80587762    -0.07000
C595        C  0.19749508  0.27226435  0.79082836    -0.32400
N596        N  0.16075825  0.26912867  0.78352099     0.14100
C597        C  0.15039633  0.23928216  0.79807958    -0.32400
H598        H  0.12320876  0.23383694  0.80636955     0.16100
C599        C  0.25125170  0.23624134  0.89250464    -0.31300
N600        N  0.22998961  0.21984881  0.91566314     0.12900
C601        C  0.20297636  0.20159047  0.89776291    -0.31300
C602        C  0.27935722  0.16752364  0.80596016    -0.31600
N603        N  0.26690827  0.13383811  0.80753821     0.13400
H604        H  0.30790283  0.17472827  0.80906296     0.16000
C605        C  0.23078603  0.13620487  0.81380492    -0.31600
H606        H  0.21435280  0.11472674  0.82210011     0.16000
H607        H  0.18273457  0.18631305  0.91018462     0.16000
H608        H  0.21226287  0.29622817  0.79760135     0.16100
H609        H  0.27459254  0.25296131  0.90006576     0.16000
O610        O  0.48795449  0.00008719  0.49971932    -0.80200
O611        O  0.40894931  0.00888193  0.88651613    -0.80300
O612        O  0.02209124  0.00942495  0.92096800    -0.80300
O613        O  0.38554521  0.00996742  0.95385500    -0.80200
O614        O  0.47896747  0.02680023  0.88592481    -0.80300
O615        O  0.41823650  0.00661079  0.50187423    -0.80300
O616        O  0.37085187  0.96746810  0.89347239    -0.79700
O617        O  0.03219829  0.47044257  0.97296251    -0.80300
C618        C  0.02128551  0.99442582  0.99577312     1.09400
C619        C  0.38132125  0.99186598  0.87535674     1.09300
C620        C  0.00868272  0.03289242  0.90269175     1.09500
C621        C  0.39540771  0.02304961  0.98384209     1.09300
O622        O  0.40967374  0.43032366  0.48288008    -0.80200
O623        O  0.49900895  0.45188453  0.86825174    -0.80300
O624        O  0.99093972  0.41117844  0.93179965    -0.80300
O625        O  0.41205446  0.41189274  0.91865579    -0.80200
O626        O  0.42753242  0.43311332  0.86894913    -0.80300
O627        O  0.48474711  0.42301987  0.48798238    -0.80300
O628        O  0.35669841  0.44476152  0.96086498    -0.80200
O629        O  0.04725836  0.44327460  0.90339191    -0.80300
Co630      Co  0.45051776  0.46558825  0.98921465     1.51500
Co631      Co  0.45322251  0.48046882  0.88150913     1.51700
Co632      Co  0.00404349  0.46072554  0.92613467     1.51600
Co633      Co  0.40017383  0.46076069  0.93783855     1.51500
O634        O  0.45302586  0.47648902  0.93574489    -1.42200
C635        C  0.37561357  0.43639678  0.98749629     1.09400
C636        C  0.03098525  0.43853974  0.87358986     1.09500
C637        C  0.99412600  0.40178232  0.96244826     1.09400
C638        C  0.41623647  0.40738438  0.88588115     1.09400
C639        C  0.36406115  0.32086608  0.86225683    -0.26400
C640        C  0.35935419  0.32183667  0.82549186    -0.14500
C641        C  0.38102022  0.34720028  0.80885651     0.36100
C642        C  0.40182796  0.37261510  0.82915192    -0.25900
C643        C  0.40247537  0.37419639  0.86594807    -0.15100
C644        C  0.38523472  0.34653285  0.88238672     0.37200
N645        N  0.38830301  0.34471328  0.91967872    -0.89400
H646        H  0.35080737  0.30088731  0.87627012     0.18300
H647        H  0.41615450  0.39260505  0.81569996     0.18300
N648        N  0.38228998  0.34900573  0.77146040    -0.88400
H649        H  0.39985142  0.32007513  0.92470731     0.35700
H650        H  0.36182621  0.34584884  0.92981079     0.40800
H651        H  0.35640747  0.35408211  0.76070692     0.40400
H652        H  0.39303165  0.32548759  0.75971975     0.35300
C653        C  0.05299646  0.36931813  0.46225429    -0.26400
C654        C  0.01524504  0.36934867  0.46894906    -0.14500
C655        C  0.00008806  0.34051146  0.48502740     0.36100
C656        C  0.02370956  0.31457186  0.49765715    -0.25900
C657        C  0.06248242  0.31812596  0.49703884    -0.15100
C658        C  0.07680519  0.34395819  0.47592179     0.37200
N659        N  0.11579779  0.34648147  0.47125302    -0.89400
H660        H  0.06439551  0.39082530  0.44862242     0.18300
H661        H  0.01083374  0.29301895  0.50965988     0.18300
N662        N  0.96113262  0.33684289  0.98932535    -0.88400
H663        H  0.12200023  0.36865098  0.45755403     0.35700
H664        H  0.12370914  0.32423388  0.45521407     0.40800
H665        H  0.44634109  0.35704068  0.97796971     0.40400
H666        H  0.45612215  0.33934343  0.01624329     0.35300
C667        C  0.33019399  0.98851242  0.83123174    -0.26400
C668        C  0.36677471  0.99665252  0.83979793    -0.14500
C669        C  0.38907936  0.01078466  0.81440086     0.36100
C670        C  0.37278614  0.02322948  0.78416972    -0.25900
C671        C  0.33448096  0.02250280  0.77951140    -0.15100
C672        C  0.31373794  0.00071617  0.80080146     0.37200
N673        N  0.27502455  0.99520602  0.79418418    -0.89400
H674        H  0.31371636  0.97521625  0.84957622     0.18300
H675        H  0.39001371  0.03685005  0.76686488     0.18300
N676        N  0.42809350  0.01392316  0.81983831    -0.88400
H677        H  0.26322246  0.98254911  0.81463094     0.35700
H678        H  0.27238787  0.97735598  0.77201455     0.40800
H679        H  0.43514421  0.04073811  0.81919702     0.40400
H680        H  0.44089092  0.99971434  0.79893174     0.35300
C681        C  0.36516888  0.41003285  0.58035256    -0.26400
C682        C  0.32674547  0.40882089  0.58191275    -0.14500
C683        C  0.30574477  0.42758863  0.55751546     0.36100
C684        C  0.32240130  0.43839951  0.52739281    -0.25900
C685        C  0.35992993  0.43227623  0.52226561    -0.15100
C686        C  0.38211980  0.42143393  0.55065381     0.37200
N687        N  0.42157864  0.42011535  0.54863138    -0.89400
H688        H  0.38230153  0.39952748  0.60056089     0.18300
H689        H  0.30544803  0.44945115  0.00710819     0.18300
N690        N  0.26680720  0.43179823  0.56113698    -0.88400
H691        H  0.43343900  0.40953272  0.57081025     0.35700
H692        H  0.43088884  0.44634607  0.54880110     0.40800
H693        H  0.26067476  0.45895419  0.56134758     0.40400
H694        H  0.25361379  0.41918003  0.03918471     0.35300
C695        C  0.06841405  0.06457458  0.90422022    -0.26400
C696        C  0.03007592  0.06574584  0.89855485    -0.14500
C697        C  0.01441628  0.09685655  0.88585054     0.36100
C698        C  0.03740190  0.12266749  0.87353047    -0.25900
C699        C  0.07568768  0.11699207  0.87156112    -0.15100
C700        C  0.09140269  0.09026117  0.89142217     0.37200
N701        N  0.13070597  0.08692574  0.89496927    -0.89400
H702        H  0.08084015  0.54203478  0.91609028     0.18300
H703        H  0.02445691  0.14555102  0.86306752     0.18300
N704        N  0.47547469  0.10270283  0.88422142    -0.88400
H705        H  0.13776981  0.06445161  0.90821319     0.35700
H706        H  0.14010147  0.10886890  0.91095377     0.40800
H707        H  0.46481893  0.09931092  0.90894935     0.40400
H708        H  0.46350316  0.08419189  0.86577471     0.35300
C709        C  0.38162156  0.10714504  0.54279370    -0.26400
C710        C  0.34315102  0.11120481  0.54055968    -0.14500
C711        C  0.32308699  0.08816543  0.51596408     0.36100
C712        C  0.34117539  0.06142815  0.49556365    -0.25900
C713        C  0.37896890  0.05611362  0.49966648    -0.15100
C714        C  0.39963112  0.07975375  0.52278758     0.37200
N715        N  0.43885127  0.07552851  0.52616184    -0.89400
H716        H  0.39805510  0.12434220  0.56059707     0.18300
H717        H  0.32509834  0.04325451  0.47806891     0.18300
N718        N  0.28383922  0.09088694  0.51258633    -0.88400
H719        H  0.44997658  0.09437524  0.54487344     0.35700
H720        H  0.45004050  0.08059306  0.00215965     0.40800
H721        H  0.27710571  0.09527694  0.48648329     0.40400
H722        H  0.27242999  0.06657442  0.51819785     0.35300
C723        C  0.01990302  0.39158879  0.82641850    -0.26400
C724        C  0.04516538  0.41427387  0.84532831    -0.14500
C725        C  0.08230309  0.41299055  0.83693141     0.36100
C726        C  0.09362523  0.38841194  0.81011479    -0.25900
C727        C  0.06872223  0.36456374  0.79139559    -0.15100
C728        C  0.03121195  0.36653750  0.79993960     0.37200
N729        N  0.00446140  0.34296884  0.78315208    -0.89400
H730        H  0.99105566  0.39247300  0.83303738     0.18300
H731        H  0.12263495  0.38721102  0.80420009     0.18300
N732        N  0.10824391  0.43664422  0.85542507    -0.88400
H733        H  0.98404240  0.35826208  0.77167006     0.35700
H734        H  0.99226086  0.32886556  0.80240386     0.40800
H735        H  0.10111485  0.46262002  0.84994471     0.40400
H736        H  0.13474013  0.43209839  0.84598471     0.35300
C737        C  0.04999121  0.07891973  0.54378379    -0.26400
C738        C  0.06077429  0.06785040  0.57690503    -0.14500
C739        C  0.05724248  0.03115920  0.58232230     0.36100
C740        C  0.05075521  0.00640737  0.55335648    -0.25900
C741        C  0.04455976  0.01749277  0.51945818    -0.15100
C742        C  0.04319877  0.05440816  0.51501824     0.37200
N743        N  0.03386125  0.06696378  0.98128925    -0.89400
H744        H  0.04898834  0.10709764  0.53978723     0.18300
H745        H  0.04697675  0.47856570  0.55777018     0.18300
N746        N  0.05703692  0.01945235  0.61730197    -0.88400
H747        H  0.03581003  0.09469078  0.98195430     0.35700
H748        H  0.00628108  0.06090164  0.97558726     0.40800
H749        H  0.03450574  0.03145211  0.62997744     0.40400
H750        H  0.05304578  0.49194831  0.61677582     0.35300
C751        C  0.08310221  0.59414697  0.10177612     0.86400
C752        C  0.10925955  0.61522168  0.07990499    -0.53900
C753        C  0.13087398  0.63877075  0.09834106     0.09300
C754        C  0.12525591  0.63900144  0.13890902     0.20300
C755        C  0.10985217  0.57664570  0.12736277    -0.54600
C756        C  0.13207566  0.59916250  0.14740068     0.09400
C757        C  0.06122853  0.62305894  0.12446379    -0.54100
C758        C  0.08301183  0.64719595  0.14416947     0.10000
H759        H  0.11127830  0.61185632  0.05153145     0.14500
H760        H  0.14320378  0.65834172  0.15437450     0.00200
H761        H  0.11482182  0.54854451  0.12592413     0.14800
H762        H  0.03148260  0.62520945  0.12330485     0.14600
C763        C  0.07064088  0.68286167  0.16515294     0.29900
C764        C  0.07227660  0.74961890  0.20115559     0.29900
C765        C  0.08659612  0.71303627  0.14643996    -0.06300
C766        C  0.03156779  0.69940732  0.17412641    -0.07100
C767        C  0.08904675  0.68553959  0.20144844    -0.07000
C768        C  0.08791217  0.74671435  0.16456423    -0.06300
C769        C  0.03240198  0.73376291  0.19309861    -0.07100
C770        C  0.08933899  0.71923439  0.21959139    -0.07000
C771        C  0.08165901  0.77057893  0.13959021    -0.32400
N772        N  0.07809252  0.75348432  0.10754355     0.14100
C773        C  0.07893579  0.71856475  0.11192996    -0.32400
H774        H  0.06921833  0.69838378  0.09234695     0.16100
C775        C  0.49588448  0.74337117  0.19892626    -0.31300
N776        N  0.47322976  0.71725821  0.18401029     0.12900
C777        C  0.49460554  0.69066235  0.16875260    -0.31300
C778        C  0.08400935  0.71373198  0.25424025    -0.31600
N779        N  0.08356122  0.67879948  0.25869291     0.13400
H780        H  0.07558330  0.73400195  0.27396144     0.16000
C781        C  0.08488061  0.66167487  0.22657336    -0.31600
H782        H  0.07612950  0.63463854  0.22116551     0.16000
H783        H  0.48405611  0.66654086  0.15508691     0.16000
H784        H  0.07274090  0.79753012  0.14518258     0.16100
H785        H  0.48643632  0.76781140  0.21247390     0.16000
C786        C  0.08619386  0.83709796  0.26540011     0.86400
C787        C  0.11344854  0.81519588  0.28657384    -0.53900
C788        C  0.13592880  0.79370254  0.26719353     0.09300
C789        C  0.12813911  0.79490260  0.22694251     0.20300
C790        C  0.10938815  0.85638670  0.23940385    -0.54600
C791        C  0.13260510  0.83548861  0.21991009     0.09400
C792        C  0.06408618  0.80832175  0.24187966    -0.54100
C793        C  0.08571012  0.78534541  0.22172977     0.10000
H794        H  0.11460407  0.81637013  0.31510854     0.14500
H795        H  0.14655045  0.77682703  0.21109863     0.00200
H796        H  0.10909150  0.88500504  0.23874665     0.14800
H797        H  0.03477167  0.80441653  0.24200431     0.14600
C798        C  0.22659917  0.56976160  0.20786140     0.29900
C799        C  0.16480444  0.58535045  0.16985837     0.29900
C800        C  0.23242352  0.58934276  0.17555742    -0.06300
C801        C  0.20603367  0.53706526  0.19260688    -0.07100
C802        C  0.19595115  0.58982674  0.22807321    -0.07000
C803        C  0.20166260  0.60097732  0.15891142    -0.06300
C804        C  0.17392157  0.54378718  0.17227970    -0.07100
C805        C  0.16388578  0.59715302  0.20872090    -0.07000
C806        C  0.21455834  0.62670042  0.13851015    -0.32400
N807        N  0.25153935  0.62347175  0.13518256     0.14100
C808        C  0.26244488  0.59925898  0.15772066    -0.32400
H809        H  0.28973535  0.58845252  0.16053372     0.16100
C810        C  0.15532220  0.51083882  0.16994304    -0.31300
N811        N  0.17502176  0.98657841  0.18779702     0.12900
C812        C  0.20511784  0.50293059  0.20226839    -0.31300
C813        C  0.13556034  0.59327055  0.23138992    -0.31600
N814        N  0.14855788  0.58891191  0.26421386     0.13400
H815        H  0.10734541  0.58818537  0.22347257     0.16000
C816        C  0.18505173  0.58402249  0.26140158    -0.31600
H817        H  0.20214959  0.57282862  0.28132989     0.16000
H818        H  0.22502492  0.98999334  0.21843732     0.16000
H819        H  0.19900939  0.64912055  0.13153434     0.16100
H820        H  0.12926450  0.00464850  0.15688195     0.16000
C821        C  0.32229362  0.63778179  0.06513508     0.86400
C822        C  0.34394199  0.66307957  0.09238104    -0.53900
C823        C  0.32201138  0.68357643  0.11437298     0.09300
C824        C  0.27963881  0.67815054  0.10483645     0.20300
C825        C  0.29663701  0.61735691  0.08824601    -0.54600
C826        C  0.27430592  0.63824069  0.10914050     0.09400
C827        C  0.29706015  0.66223171  0.04441802    -0.54100
C828        C  0.27317492  0.68227437  0.06411997     0.10000
H829        H  0.37332594  0.66230007  0.09695460     0.14500
H830        H  0.26114395  0.69497060  0.12186215     0.00200
H831        H  0.29690970  0.58855932  0.08872332     0.14800
H832        H  0.29635397  0.66135502  0.01600834     0.14600
C833        C  0.09811308  0.63193249  0.34252706     0.86400
C834        C  0.07664637  0.65411026  0.31597208    -0.53900
C835        C  0.09777285  0.66387131  0.28952360     0.09300
C836        C  0.13766465  0.65179278  0.29169135     0.20300
C837        C  0.11449143  0.60080337  0.31885074    -0.54600
C838        C  0.13506653  0.61169942  0.29259696     0.09400
C839        C  0.13143358  0.65567800  0.35495725    -0.54100
C840        C  0.15258748  0.66583787  0.32802572     0.10000
H841        H  0.04744929  0.65965635  0.31568552     0.14500
H842        H  0.15400057  0.65994976  0.26938835     0.00200
H843        H  0.10876605  0.57287162  0.32151362     0.14800
H844        H  0.13641245  0.66381917  0.38224120     0.14600
C845        C  0.33614704  0.73535329  0.21725386     0.29900
C846        C  0.33498735  0.70170651  0.15076781     0.29900
C847        C  0.31932520  0.75592677  0.18806700    -0.06300
C848        C  0.37551335  0.72712202  0.20140368    -0.07100
C849        C  0.31939608  0.69830791  0.21346275    -0.07000
C850        C  0.31860199  0.73872491  0.15443808    -0.06300
C851        C  0.37477791  0.70934905  0.16693004    -0.07100
C852        C  0.31895859  0.68114588  0.17971268    -0.07000
C853        C  0.32546538  0.76452893  0.13178265    -0.32400
N854        N  0.32862749  0.79671128  0.14913169     0.14100
C855        C  0.32688020  0.79118074  0.18347214    -0.32400
H856        H  0.33630581  0.81032963  0.20416727     0.16100
C857        C  0.41121582  0.70389800  0.15752680    -0.31300
N858        N  0.43391806  0.71777659  0.18407756     0.12900
C859        C  0.41257546  0.73205875  0.21068140    -0.31300
C860        C  0.32617099  0.64561415  0.18412707    -0.31600
N861        N  0.32937236  0.63985397  0.21843681     0.13400
H862        H  0.33395424  0.62625217  0.16333853     0.16000
C863        C  0.32676938  0.67207496  0.23602082    -0.31600
H864        H  0.33659109  0.67711948  0.26261870     0.16000
H865        H  0.42330305  0.74462937  0.23513180     0.16000
H866        H  0.33440334  0.75934600  0.10526421     0.16100
H867        H  0.42059710  0.69121833  0.13301835     0.16000
C868        C  0.30829782  0.87923621  0.10001127     0.86400
C869        C  0.29115095  0.85336021  0.07093474    -0.53900
C870        C  0.27275693  0.82634155  0.08344306     0.09300
C871        C  0.27249777  0.82676999  0.12312208     0.20300
C872        C  0.27632495  0.89112602  0.12423448    -0.54600
C873        C  0.25712989  0.86325395  0.13585555     0.09400
C874        C  0.33241739  0.85453101  0.12241694    -0.54100
C875        C  0.31286883  0.82720834  0.13424997     0.10000
H876        H  0.29429116  0.85552817  0.04294139     0.14500
H877        H  0.25737441  0.80377874  0.13241517     0.00200
H878        H  0.27044149  0.91875175  0.13116605     0.14800
H879        H  0.36181754  0.85634592  0.12707611     0.14600
C880        C  0.31525544  0.55365271  0.26366545     0.86400
C881        C  0.29951341  0.57758053  0.29449216    -0.53900
C882        C  0.28000206  0.60556244  0.28416070     0.09300
C883        C  0.27653831  0.60715818  0.24466135     0.20300
C884        C  0.28247916  0.54276814  0.23903292    -0.54600
C885        C  0.26148118  0.57073453  0.23011117     0.09400
C886        C  0.33732989  0.58032255  0.24262486    -0.54100
C887        C  0.31613297  0.60834911  0.23296409     0.10000
H888        H  0.30490788  0.57369188  0.32206150     0.14500
H889        H  0.25998332  0.63032177  0.23688859     0.00200
H890        H  0.27771830  0.51574501  0.22868109     0.14800
H891        H  0.36635367  0.57864695  0.23702979     0.14600
C892        C  0.22345672  0.86375841  0.15858654     0.29900
C893        C  0.16383893  0.85088783  0.19824651     0.29900
C894        C  0.23101495  0.84351597  0.19092261    -0.06300
C895        C  0.20304243  0.89722655  0.17303444    -0.07100
C896        C  0.19205942  0.84329358  0.13951565    -0.07000
C897        C  0.20127873  0.83691879  0.21066061    -0.06300
C898        C  0.17222908  0.89157374  0.19393392    -0.07100
C899        C  0.16128556  0.83690197  0.15955809    -0.07000
C900        C  0.21547087  0.82679548  0.24192460    -0.32400
N901        N  0.25257582  0.82127307  0.24004165     0.14100
C902        C  0.26217970  0.83550826  0.21002480    -0.32400
H903        H  0.28933322  0.84397649  0.20429918     0.16100
C904        C  0.15566591  0.92523492  0.19935132    -0.31300
N905        N  0.17451313  0.94916951  0.18134598     0.12900
C906        C  0.20276384  0.93202771  0.16512081    -0.31300
C907        C  0.13166431  0.83881302  0.13655613    -0.31600
N908        N  0.14288651  0.84228064  0.10347708     0.13400
H909        H  0.10373876  0.84373700  0.14434955     0.16000
C910        C  0.17935391  0.84765219  0.10597038    -0.31600
H911        H  0.19510668  0.85845628  0.08565078     0.16000
H912        H  0.22193609  0.94503863  0.14926954     0.16000
H913        H  0.20036560  0.83294869  0.26529033     0.16100
H914        H  0.13197067  0.93208988  0.21499234     0.16000
C915        C  0.08767788  0.80170358  0.02465433     0.86400
C916        C  0.06804267  0.77886472  0.05089885    -0.53900
C917        C  0.09068315  0.76824372  0.07670600     0.09300
C918        C  0.13030697  0.77999336  0.07447206     0.20300
C919        C  0.10567704  0.83204068  0.04885290    -0.54600
C920        C  0.12764633  0.82022900  0.07472194     0.09400
C921        C  0.12059841  0.77789165  0.01113902    -0.54100
C922        C  0.14323002  0.76670994  0.03767427     0.10000
H923        H  0.03899954  0.77331778  0.05177120     0.14500
H924        H  0.14776522  0.77108571  0.09648008     0.00200
H925        H  0.09995178  0.86014930  0.04685907     0.14800
H926        H  0.12480356  0.77035883  0.98364851     0.14600
C927        C  0.33055460  0.79799941  0.30447460     0.86400
C928        C  0.34855878  0.77308404  0.27567762    -0.53900
C929        C  0.32471039  0.75499828  0.25314333     0.09300
C930        C  0.28318948  0.76195159  0.26388423     0.20300
C931        C  0.30244593  0.82131333  0.28526981    -0.54600
C932        C  0.27768934  0.80320881  0.26374602     0.09400
C933        C  0.30541705  0.77298957  0.32453911    -0.54100
C934        C  0.27997604  0.75385760  0.30396719     0.10000
H935        H  0.37801607  0.77119735  0.27253234     0.14500
H936        H  0.26316289  0.74701660  0.24611093     0.00200
H937        H  0.30231323  0.85019497  0.28829556     0.14800
H938        H  0.30602744  0.77150312  0.35261208     0.14600
C939        C  0.17821998  0.74339703  0.03584306     0.29900
C940        C  0.24011916  0.70293454  0.04816661     0.29900
C941        C  0.17261903  0.70903596  0.05340563    -0.06300
C942        C  0.19958062  0.73083363  0.00278552    -0.07100
C943        C  0.20898602  0.76163301  0.05784722    -0.07000
C944        C  0.20312759  0.68826705  0.05890077    -0.06300
C945        C  0.23176102  0.71010369  0.00840326    -0.07100
C946        C  0.24031984  0.74104670  0.06434705    -0.07000
C947        C  0.19025515  0.65756293  0.07171413    -0.32400
N948        N  0.15426565  0.66217975  0.08014866     0.14100
C949        C  0.14283847  0.69181881  0.06512374    -0.32400
H950        H  0.11494250  0.69882239  0.05949778     0.16100
C951        C  0.24919109  0.70726412  0.47607408    -0.31300
N952        N  0.22938083  0.72588341  0.45256659     0.12900
C953        C  0.19945742  0.74021153  0.46882113    -0.31300
C954        C  0.26937083  0.76411974  0.06520472    -0.31600
N955        N  0.25735429  0.79755756  0.06202742     0.13400
H956        H  0.29766053  0.75628326  0.06228939     0.16000
C957        C  0.22101670  0.79574503  0.05534333    -0.31600
H958        H  0.20507753  0.81692154  0.04485335     0.16000
H959        H  0.17861481  0.75563485  0.45611771     0.16000
H960        H  0.20592140  0.63343388  0.07402653     0.16100
H961        H  0.27402012  0.69250533  0.46981534     0.16000
C962        C  0.18710139  0.68932003  0.32941574     0.29900
C963        C  0.24812712  0.73076491  0.31855738     0.29900
C964        C  0.18099666  0.72091290  0.30782777    -0.06300
C965        C  0.20624916  0.70593432  0.36283823    -0.07100
C966        C  0.21920706  0.67047501  0.31137103    -0.07000
C967        C  0.21117125  0.74144621  0.30232907    -0.06300
C968        C  0.23760985  0.72746944  0.35829522    -0.07100
C969        C  0.25036851  0.69111060  0.30584743    -0.07000
C970        C  0.19749736  0.77225715  0.29083630    -0.32400
N971        N  0.16075884  0.76912990  0.28353587     0.14100
C972        C  0.15038416  0.73929582  0.29811016    -0.32400
H973        H  0.12319362  0.73385655  0.30639530     0.16100
C974        C  0.25128900  0.73620102  0.39249888    -0.31300
N975        N  0.23000161  0.71985244  0.41566728     0.12900
C976        C  0.20296692  0.70161320  0.39777883    -0.31300
C977        C  0.27931178  0.66750351  0.30592386    -0.31600
N978        N  0.26684827  0.63382519  0.30749800     0.13400
H979        H  0.30785938  0.67469657  0.30904005     0.16000
C980        C  0.23072883  0.63619922  0.31376560    -0.31600
H981        H  0.21429307  0.61472786  0.32207108     0.16000
H982        H  0.18268705  0.68639252  0.41021350     0.16000
H983        H  0.21228202  0.79621531  0.29758135     0.16100
H984        H  0.27464487  0.75290418  0.40005126     0.16000
O985        O  0.48794728  0.50006513  0.99973731    -0.80200
O986        O  0.40896886  0.50885225  0.38649494    -0.80300
O987        O  0.02209514  0.50942711  0.42102397    -0.80300
O988        O  0.38553388  0.50992402  0.45385686    -0.80200
O989        O  0.47899775  0.52677478  0.38593665    -0.80300
O990        O  0.41823355  0.50662406  0.00187549    -0.80300
O991        O  0.37087164  0.46743577  0.39345744    -0.79700
O992        O  0.03221248  0.97044080  0.47298900    -0.80300
C993        C  0.02129481  0.49444656  0.49577378     1.09400
C994        C  0.38134185  0.49183086  0.37533792     1.09300
C995        C  0.00869650  0.53288073  0.40272991     1.09500
C996        C  0.39538558  0.52301231  0.48384637     1.09300
O997        O  0.40964077  0.93033197  0.98288173    -0.80200
O998        O  0.49903586  0.95186713  0.36827564    -0.80300
O999        O  0.99098310  0.91117180  0.43179561    -0.80300
O1000       O  0.41207087  0.91185287  0.41862991    -0.80200
O1001       O  0.42755313  0.93308903  0.36893139    -0.80300
O1002       O  0.48472097  0.92301971  0.98798743    -0.80300
O1003       O  0.35671990  0.94471023  0.46085545    -0.80200
O1004       O  0.04729933  0.94330065  0.40341021    -0.80300
Co1005     Co  0.45053764  0.96558747  0.48921398     1.51500
Co1006     Co  0.45324654  0.98044391  0.38150943     1.51700
Co1007     Co  0.00406927  0.96072422  0.42615355     1.51600
Co1008     Co  0.40018590  0.96072099  0.43782632     1.51500
O1009       O  0.45303572  0.97646466  0.43574366    -1.42200
C1010       C  0.37564600  0.93638488  0.48749561     1.09400
C1011       C  0.03101874  0.93854166  0.37361341     1.09500
C1012       C  0.99414495  0.90177398  0.46244494     1.09400
C1013       C  0.41624558  0.90735556  0.38585167     1.09400
C1014       C  0.36413526  0.82078853  0.36220028    -0.26400
C1015       C  0.35935452  0.82181047  0.32544855    -0.14500
C1016       C  0.38097120  0.84720917  0.30881010     0.36100
C1017       C  0.40176741  0.87263416  0.32910481    -0.25900
C1018       C  0.40246827  0.87417799  0.36590125    -0.15100
C1019       C  0.38529407  0.84646896  0.38233071     0.37200
N1020       N  0.38842124  0.84461241  0.41961447    -0.89400
H1021       H  0.35094800  0.80075805  0.37620045     0.18300
H1022       H  0.41604823  0.89265513  0.31565480     0.18300
N1023       N  0.38221076  0.84903266  0.27141357    -0.88400
H1024       H  0.40004293  0.81999451  0.42460243     0.35700
H1025       H  0.36195672  0.84566867  0.42977602     0.40800
H1026       H  0.35632157  0.85410884  0.26067624     0.40400
H1027       H  0.39294622  0.82552014  0.25965374     0.35300
C1028       C  0.05301134  0.86937416  0.96230470    -0.26400
C1029       C  0.01524966  0.86936856  0.96894953    -0.14500
C1030       C  0.00009556  0.84051465  0.98500131     0.36100
C1031       C  0.02371636  0.81458268  0.99764699    -0.25900
C1032       C  0.06248734  0.81813723  0.99703611    -0.15100
C1033       C  0.07681561  0.84399370  0.97594662     0.37200
N1034       N  0.11580915  0.84651526  0.97128128    -0.89400
H1035       H  0.06441516  0.89090883  0.94871506     0.18300
H1036       H  0.01084229  0.79302835  0.00964969     0.18300
N1037       N  0.96112486  0.83684584  0.48936560    -0.88400
H1038       H  0.12201937  0.86871314  0.95762692     0.35700
H1039       H  0.12371047  0.82429161  0.95520303     0.40800
H1040       H  0.44633962  0.85711386  0.47812012     0.40400
H1041       H  0.45613247  0.83922236  0.51628883     0.35300
C1042       C  0.33019577  0.48849398  0.33122937    -0.26400
C1043       C  0.36678374  0.49661995  0.33978298    -0.14500
C1044       C  0.38907592  0.51077277  0.31438892     0.36100
C1045       C  0.37276889  0.52325091  0.28418174    -0.25900
C1046       C  0.33446414  0.52252530  0.27953376    -0.15100
C1047       C  0.31372601  0.50072819  0.30081786     0.37200
N1048       N  0.27501028  0.49522494  0.29420753    -0.89400
H1049       H  0.31372442  0.47518871  0.34957223     0.18300
H1050       H  0.38999133  0.53688364  0.26688305     0.18300
N1051       N  0.42809117  0.51391498  0.31981333    -0.88400
H1052       H  0.26321768  0.48254015  0.31464140     0.35700
H1053       H  0.27236584  0.47739933  0.27202039     0.40800
H1054       H  0.43512476  0.54074224  0.31924905     0.40400
H1055       H  0.44088332  0.49977601  0.29886090     0.35300
C1056       C  0.36513031  0.91005834  0.08036649    -0.26400
C1057       C  0.32670755  0.90885634  0.08193339    -0.14500
C1058       C  0.30571538  0.92763809  0.05754303     0.36100
C1059       C  0.32236606  0.93841156  0.02739947    -0.25900
C1060       C  0.35988969  0.93225907  0.02225930    -0.15100
C1061       C  0.38208069  0.92142237  0.05065120     0.37200
N1062       N  0.42154002  0.92009049  0.04862782    -0.89400
H1063       H  0.38226241  0.89957008  0.10058437     0.18300
H1064       H  0.30547989  0.94942357  0.50709461     0.18300
N1065       N  0.26679533  0.93194231  0.06122056    -0.88400
H1066       H  0.43340279  0.90962342  0.07086592     0.35700
H1067       H  0.43085242  0.94631107  0.04867834     0.40800
H1068       H  0.26074391  0.95911927  0.06150187     0.40400
H1069       H  0.25368834  0.91895022  0.53911111     0.35300
C1070       C  0.06843550  0.56454212  0.40424108    -0.26400
C1071       C  0.03009521  0.56572662  0.39859375    -0.14500
C1072       C  0.01443690  0.59684422  0.38591035     0.36100
C1073       C  0.03742205  0.62264056  0.37356398    -0.25900
C1074       C  0.07570773  0.61695835  0.37158454    -0.15100
C1075       C  0.09142380  0.59023392  0.39145244     0.37200
N1076       N  0.13072651  0.58692135  0.39503357    -0.89400
H1077       H  0.08086113  0.04199573  0.41610023     0.18300
H1078       H  0.02447838  0.64553249  0.36311598     0.18300
N1079       N  0.47549800  0.60272682  0.38436591    -0.88400
H1080       H  0.13778827  0.56447200  0.40831710     0.35700
H1081       H  0.14009873  0.60888752  0.41099913     0.40800
H1082       H  0.46490542  0.59937205  0.40912719     0.40400
H1083       H  0.46345934  0.58421085  0.36596653     0.35300
C1084       C  0.38167336  0.60716282  0.04282412    -0.26400
C1085       C  0.34320515  0.61126233  0.04053924    -0.14500
C1086       C  0.32315716  0.58826705  0.01589249     0.36100
C1087       C  0.34125040  0.56154669  0.99547916    -0.25900
C1088       C  0.37902453  0.55616931  0.99965237    -0.15100
C1089       C  0.39968404  0.57976681  0.02281985     0.37200
N1090       N  0.43889507  0.57548411  0.02625083    -0.89400
H1091       H  0.39809636  0.62431002  0.06068490     0.18300
H1092       H  0.32517944  0.54341272  0.97793797     0.18300
N1093       N  0.28391221  0.59099539  0.01249245    -0.88400
H1094       H  0.45003693  0.59440749  0.04487606     0.35700
H1095       H  0.44995087  0.58079736  0.50209615     0.40800
H1096       H  0.27719881  0.59543603  0.98639721     0.40400
H1097       H  0.27249696  0.56666830  0.01804982     0.35300
C1098       C  0.01993460  0.89155323  0.32648572    -0.26400
C1099       C  0.04519458  0.91426988  0.34535782    -0.14500
C1100       C  0.08232247  0.91301300  0.33692975     0.36100
C1101       C  0.09363578  0.88844494  0.31009897    -0.25900
C1102       C  0.06873533  0.86456294  0.29141751    -0.15100
C1103       C  0.03124044  0.86648499  0.30002281     0.37200
N1104       N  0.00451310  0.84281743  0.28334665    -0.89400
H1105       H  0.99109597  0.89241091  0.33313877     0.18300
H1106       H  0.12263863  0.88726907  0.30415440     0.18300
N1107       N  0.10826220  0.93667463  0.35541466    -0.88400
H1108       H  0.98400684  0.85803163  0.27189411     0.35700
H1109       H  0.99242494  0.82871447  0.30266165     0.40800
H1110       H  0.10110878  0.96265083  0.34995704     0.40400
H1111       H  0.13475205  0.93215095  0.34595072     0.35300
C1112       C  0.05004068  0.57888451  0.04376771    -0.26400
C1113       C  0.06078747  0.56782786  0.07690462    -0.14500
C1114       C  0.05721715  0.53114167  0.08233698     0.36100
C1115       C  0.05069909  0.50638392  0.05337916    -0.25900
C1116       C  0.04455754  0.51745502  0.01946633    -0.15100
C1117       C  0.04324873  0.55436615  0.01500705     0.37200
N1118       N  0.03376352  0.56701313  0.48131455    -0.89400
H1119       H  0.04905748  0.60705919  0.03975680     0.18300
H1120       H  0.04688535  0.97854907  0.05780327     0.18300
N1121       N  0.05703700  0.51944571  0.11732207    -0.88400
H1122       H  0.03571116  0.59474035  0.48198230     0.35700
H1123       H  0.00617753  0.56095010  0.47564529     0.40800
H1124       H  0.03460121  0.53155703  0.13005878     0.40400
H1125       H  0.05290430  0.99196194  0.11681045     0.35300
C1126       C  0.08311097  0.59415924  0.60175934     0.86400
C1127       C  0.10926068  0.61522293  0.57987271    -0.53900
C1128       C  0.13088418  0.63877009  0.59829955     0.09300
C1129       C  0.12528177  0.63900902  0.63887222     0.20300
C1130       C  0.10986837  0.57665503  0.62733968    -0.54600
C1131       C  0.13209775  0.59917018  0.64737318     0.09400
C1132       C  0.06125053  0.62307542  0.62444964    -0.54100
C1133       C  0.08304223  0.64720990  0.64414610     0.10000
H1134       H  0.11126221  0.61185399  0.55149724     0.14500
H1135       H  0.14323339  0.65835160  0.65433000     0.00200
H1136       H  0.11482309  0.54855271  0.62591418     0.14800
H1137       H  0.03150471  0.62522860  0.62330062     0.14600
C1138       C  0.07067434  0.68287500  0.66513207     0.29900
C1139       C  0.07227138  0.74963726  0.70112579     0.29900
C1140       C  0.08661476  0.71305436  0.64641804    -0.06300
C1141       C  0.03159045  0.69939798  0.67410859    -0.07100
C1142       C  0.08909098  0.68556941  0.70142061    -0.07000
C1143       C  0.08789419  0.74673974  0.66453366    -0.06300
C1144       C  0.03240674  0.73375909  0.69307086    -0.07100
C1145       C  0.08935193  0.71926463  0.71956269    -0.07000
C1146       C  0.08159115  0.77058881  0.63955569    -0.32400
N1147       N  0.07806085  0.75347956  0.60751534     0.14100
C1148       C  0.07895653  0.71856401  0.61190746    -0.32400
H1149       H  0.06925763  0.69836909  0.59233040     0.16100
C1150       C  0.49588623  0.74335826  0.69888364    -0.31300
N1151       N  0.47324332  0.71722783  0.68398443     0.12900
C1152       C  0.49463084  0.69063219  0.66874085    -0.31300
C1153       C  0.08401671  0.71376092  0.75421009    -0.31600
N1154       N  0.08359794  0.67882881  0.75866275     0.13400
H1155       H  0.07558750  0.73402735  0.77393384     0.16000
C1156       C  0.08494876  0.66170384  0.72654536    -0.31600
H1157       H  0.07621754  0.63466330  0.72113479     0.16000
H1158       H  0.48409197  0.66649849  0.65508996     0.16000
H1159       H  0.07261470  0.79752623  0.64513564     0.16100
H1160       H  0.48642751  0.76780484  0.71241124     0.16000
C1161       C  0.08618772  0.83710150  0.76538006     0.86400
C1162       C  0.11342701  0.81518293  0.78655761    -0.53900
C1163       C  0.13591840  0.79369740  0.76717972     0.09300
C1164       C  0.12814076  0.79491038  0.72692740     0.20300
C1165       C  0.10940432  0.85639444  0.73940110    -0.54600
C1166       C  0.13262628  0.83549673  0.71990989     0.09400
C1167       C  0.06408113  0.80833780  0.74184616    -0.54100
C1168       C  0.08570673  0.78536414  0.72169782     0.10000
H1169       H  0.11456976  0.81634786  0.81509227     0.14500
H1170       H  0.14655274  0.77683483  0.71108453     0.00200
H1171       H  0.10911866  0.88501430  0.73875623     0.14800
H1172       H  0.03476740  0.80442575  0.74197280     0.14600
C1173       C  0.22658654  0.56979122  0.70790921     0.29900
C1174       C  0.16480970  0.58535854  0.66985950     0.29900
C1175       C  0.23242783  0.58933946  0.67558707    -0.06300
C1176       C  0.20600171  0.53709092  0.69268570    -0.07100
C1177       C  0.19594413  0.58988990  0.72809174    -0.07000
C1178       C  0.20167348  0.60094954  0.65890921    -0.06300
C1179       C  0.17391038  0.54380280  0.67232920    -0.07100
C1180       C  0.16388143  0.59720024  0.70871769    -0.07000
C1181       C  0.21456118  0.62666126  0.63849886    -0.32400
N1182       N  0.25154678  0.62347683  0.63522160     0.14100
C1183       C  0.26245726  0.59928494  0.65778109    -0.32400
H1184       H  0.28975203  0.58849804  0.66061829     0.16100
C1185       C  0.15534977  0.51083699  0.66991377    -0.31300
N1186       N  0.17503448  0.98658265  0.68778810     0.12900
C1187       C  0.20509977  0.50294486  0.70231599    -0.31300
C1188       C  0.13554847  0.59329178  0.73137436    -0.31600
N1189       N  0.14853188  0.58892933  0.76420221     0.13400
H1190       H  0.10734665  0.58815452  0.72343665     0.16000
C1191       C  0.18502918  0.58407529  0.76141067    -0.31600
H1192       H  0.20211794  0.57287428  0.78134109     0.16000
H1193       H  0.22499388  0.99000698  0.71849842     0.16000
H1194       H  0.19899750  0.64905322  0.63148381     0.16100
H1195       H  0.12933345  0.00462530  0.65678274     0.16000
C1196       C  0.32226438  0.63774430  0.56515118     0.86400
C1197       C  0.34392753  0.66304969  0.59238634    -0.53900
C1198       C  0.32200885  0.68356561  0.61437708     0.09300
C1199       C  0.27963586  0.67814436  0.60484717     0.20300
C1200       C  0.29661583  0.61733888  0.58827876    -0.54600
C1201       C  0.27430128  0.63823564  0.60917021     0.09400
C1202       C  0.29703411  0.66218616  0.54442655    -0.54100
C1203       C  0.27317077  0.68225591  0.56412558     0.10000
H1204       H  0.37331018  0.66225078  0.59696438     0.14500
H1205       H  0.26114594  0.69497386  0.62186942     0.00200
H1206       H  0.29688180  0.58854243  0.58877169     0.14800
H1207       H  0.29631380  0.66128714  0.51601522     0.14600
C1208       C  0.09809617  0.63196605  0.84250563     0.86400
C1209       C  0.07664850  0.65416379  0.81595268    -0.53900
C1210       C  0.09778893  0.66390906  0.78950499     0.09300
C1211       C  0.13767060  0.65180511  0.79167748     0.20300
C1212       C  0.11445155  0.60082933  0.81882501    -0.54600
C1213       C  0.13503565  0.61171754  0.79257651     0.09400
C1214       C  0.13143352  0.65568954  0.85493964    -0.54100
C1215       C  0.15260104  0.66583640  0.82801116     0.10000
H1216       H  0.04745592  0.65973257  0.81566677     0.14500
H1217       H  0.15401764  0.65995162  0.76937745     0.00200
H1218       H  0.10870986  0.57289992  0.82148364     0.14800
H1219       H  0.13640816  0.66383269  0.88222400     0.14600
C1220       C  0.33616786  0.73534731  0.71726960     0.29900
C1221       C  0.33499311  0.70169710  0.65077462     0.29900
C1222       C  0.31934293  0.75591824  0.68808514    -0.06300
C1223       C  0.37553145  0.72710549  0.70140571    -0.07100
C1224       C  0.31940968  0.69830143  0.71347599    -0.07000
C1225       C  0.31861031  0.73871723  0.65445518    -0.06300
C1226       C  0.37478628  0.70933031  0.66693095    -0.07100
C1227       C  0.31897315  0.68113800  0.67972318    -0.07000
C1228       C  0.32545845  0.76452443  0.63180102    -0.32400
N1229       N  0.32862447  0.79670494  0.64915326     0.14100
C1230       C  0.32688508  0.79117483  0.68349386    -0.32400
H1231       H  0.33630554  0.81032562  0.70418921     0.16100
C1232       C  0.41122052  0.70385643  0.65752277    -0.31300
N1233       N  0.43393173  0.71773183  0.68406710     0.12900
C1234       C  0.41259813  0.73202748  0.71067298    -0.31300
C1235       C  0.32620333  0.64560964  0.68413523    -0.31600
N1236       N  0.32939468  0.63984599  0.71844393     0.13400
H1237       H  0.33400397  0.62625417  0.66334636     0.16000
C1238       C  0.32678379  0.67206551  0.73603066    -0.31600
H1239       H  0.33661469  0.67710859  0.76262546     0.16000
H1240       H  0.42333425  0.74460371  0.73511769     0.16000
H1241       H  0.33436344  0.75934847  0.60527201     0.16100
H1242       H  0.42059268  0.69116791  0.63301447     0.16000
C1243       C  0.30833760  0.87920995  0.60000032     0.86400
C1244       C  0.29120944  0.85331823  0.57092933    -0.53900
C1245       C  0.27279434  0.82631927  0.58344512     0.09300
C1246       C  0.27251474  0.82676822  0.62312498     0.20300
C1247       C  0.27635106  0.89111789  0.62420277    -0.54600
C1248       C  0.25715008  0.86325747  0.63583791     0.09400
C1249       C  0.33244271  0.85451703  0.62243025    -0.54100
C1250       C  0.31288037  0.82720609  0.63427068     0.10000
H1251       H  0.29437113  0.85546501  0.54293532     0.14500
H1252       H  0.25738187  0.80378485  0.63242256     0.00200
H1253       H  0.27046308  0.91874777  0.63111115     0.14800
H1254       H  0.36184301  0.85632654  0.62709276     0.14600
C1255       C  0.31527444  0.55364456  0.76366373     0.86400
C1256       C  0.29957532  0.57758528  0.79450723    -0.53900
C1257       C  0.28006168  0.60557665  0.78419244     0.09300
C1258       C  0.27656115  0.60716812  0.74469519     0.20300
C1259       C  0.28246796  0.54277722  0.73906174    -0.54600
C1260       C  0.26147118  0.57075204  0.73016073     0.09400
C1261       C  0.33734027  0.58030037  0.74260263    -0.54100
C1262       C  0.31614809  0.60833954  0.73296373     0.10000
H1263       H  0.30499484  0.57369271  0.82207167     0.14500
H1264       H  0.26000900  0.63033776  0.73693417     0.00200
H1265       H  0.27769355  0.51575846  0.72870299     0.14800
H1266       H  0.36635918  0.57860961  0.73698783     0.14600
C1267       C  0.22348327  0.86377240  0.65857964     0.29900
C1268       C  0.16387030  0.85089164  0.69824872     0.29900
C1269       C  0.23105180  0.84354749  0.69092952    -0.06300
C1270       C  0.20306251  0.89723583  0.67301869    -0.07100
C1271       C  0.19208419  0.84329968  0.63951549    -0.07000
C1272       C  0.20131549  0.83694101  0.71066753    -0.06300
C1273       C  0.17224695  0.89157842  0.69391547    -0.07100
C1274       C  0.16132487  0.83688596  0.65956922    -0.07000
C1275       C  0.21550470  0.82681604  0.74193101    -0.32400
N1276       N  0.25261223  0.82131462  0.74005552     0.14100
C1277       C  0.26221807  0.83555863  0.71004217    -0.32400
H1278       H  0.28937348  0.84402576  0.70431672     0.16100
C1279       C  0.15568472  0.92523842  0.69933228    -0.31300
N1280       N  0.17453890  0.94917545  0.68133577     0.12900
C1281       C  0.20279890  0.93204062  0.66512099    -0.31300
C1282       C  0.13168920  0.83876419  0.63658405    -0.31600
N1283       N  0.14288303  0.84226942  0.60350297     0.13400
H1284       H  0.10376538  0.84364642  0.64439800     0.16000
C1285       C  0.17934754  0.84767376  0.60597998    -0.31600
H1286       H  0.19507695  0.85849867  0.58565508     0.16000
H1287       H  0.22198965  0.94505771  0.64929342     0.16000
H1288       H  0.20039309  0.83295789  0.76529390     0.16100
H1289       H  0.13198853  0.93209251  0.71497229     0.16000
C1290       C  0.08768153  0.80170762  0.52465913     0.86400
C1291       C  0.06804388  0.77886365  0.55088868    -0.53900
C1292       C  0.09067529  0.76823905  0.57669349     0.09300
C1293       C  0.13030278  0.77999146  0.57448008     0.20300
C1294       C  0.10567049  0.83204539  0.54886942    -0.54600
C1295       C  0.12763872  0.82022806  0.57474082     0.09400
C1296       C  0.12061097  0.77790110  0.51114873    -0.54100
C1297       C  0.14324307  0.76672094  0.53768450     0.10000
H1298       H  0.03900263  0.77331013  0.55175744     0.14500
H1299       H  0.14775266  0.77107738  0.59649104     0.00200
H1300       H  0.09993729  0.86015354  0.54688152     0.14800
H1301       H  0.12481929  0.77036388  0.48365995     0.14600
C1302       C  0.33056700  0.79802064  0.80450010     0.86400
C1303       C  0.34857556  0.77309630  0.77570406    -0.53900
C1304       C  0.32472962  0.75501027  0.75316133     0.09300
C1305       C  0.28320717  0.76198007  0.76389487     0.20300
C1306       C  0.30247437  0.82133994  0.78528601    -0.54600
C1307       C  0.27771969  0.80324096  0.76375704     0.09400
C1308       C  0.30541667  0.77301366  0.82455549    -0.54100
C1309       C  0.27997999  0.75388566  0.80397693     0.10000
H1310       H  0.37803377  0.77119552  0.77256963     0.14500
H1311       H  0.26317993  0.74705148  0.74611732     0.00200
H1312       H  0.30235251  0.85022186  0.78830833     0.14800
H1313       H  0.30602309  0.77151133  0.85262609     0.14600
C1314       C  0.17823994  0.74341037  0.53584983     0.29900
C1315       C  0.24013197  0.70293196  0.54816407     0.29900
C1316       C  0.17263144  0.70903422  0.55337775    -0.06300
C1317       C  0.19961736  0.73087129  0.50279272    -0.07100
C1318       C  0.20899902  0.76162776  0.55788024    -0.07000
C1319       C  0.20313661  0.68826098  0.55887175    -0.06300
C1320       C  0.23179170  0.71013037  0.50840587    -0.07100
C1321       C  0.24033619  0.74103522  0.56436268    -0.07000
C1322       C  0.19026379  0.65755484  0.57167547    -0.32400
N1323       N  0.15427193  0.66217030  0.58009669     0.14100
C1324       C  0.14284744  0.69181359  0.56507853    -0.32400
H1325       H  0.11495277  0.69882615  0.55945727     0.16100
C1326       C  0.24916670  0.70724769  0.97607339    -0.31300
N1327       N  0.22935462  0.72586343  0.95256415     0.12900
C1328       C  0.19942408  0.74017932  0.96881486    -0.31300
C1329       C  0.26939085  0.76410347  0.56519957    -0.31600
N1330       N  0.25737453  0.79754242  0.56203683     0.13400
H1331       H  0.29767688  0.75626280  0.56224865     0.16000
C1332       C  0.22103149  0.79573946  0.55538796    -0.31600
H1333       H  0.20509042  0.81692053  0.54491020     0.16000
H1334       H  0.17858597  0.75560824  0.95611215     0.16000
H1335       H  0.20593359  0.63342936  0.57399986     0.16100
H1336       H  0.27400806  0.69250789  0.96981949     0.16000
C1337       C  0.18711745  0.68931947  0.82940174     0.29900
C1338       C  0.24813131  0.73078722  0.81856049     0.29900
C1339       C  0.18101459  0.72089752  0.80778565    -0.06300
C1340       C  0.20623400  0.70595917  0.86282802    -0.07100
C1341       C  0.21924790  0.67047611  0.81139403    -0.07000
C1342       C  0.21118356  0.74144357  0.80229617    -0.06300
C1343       C  0.23758144  0.72751474  0.85829545    -0.07100
C1344       C  0.25040240  0.69112245  0.80587751    -0.07000
C1345       C  0.19749490  0.77226441  0.79082837    -0.32400
N1346       N  0.16075804  0.76912870  0.78352101     0.14100
C1347       C  0.15039611  0.73928219  0.79807961    -0.32400
H1348       H  0.12320856  0.73383695  0.80636953     0.16100
C1349       C  0.25125170  0.73624124  0.89250461    -0.31300
N1350       N  0.22998966  0.71984868  0.91566311     0.12900
C1351       C  0.20297636  0.70159040  0.89776290    -0.31300
C1352       C  0.27935711  0.66752370  0.80596012    -0.31600
N1353       N  0.26690820  0.63383816  0.80753820     0.13400
H1354       H  0.30790274  0.67472834  0.80906298     0.16000
C1355       C  0.23078593  0.63620492  0.81380480    -0.31600
H1356       H  0.21435271  0.61472685  0.82210008     0.16000
H1357       H  0.18273458  0.68631302  0.91018460     0.16000
H1358       H  0.21226272  0.79622823  0.79760129     0.16100
H1359       H  0.27459252  0.75296127  0.90006575     0.16000
O1360       O  0.48795458  0.50008732  0.49971907    -0.80200
O1361       O  0.40894931  0.50888196  0.88651611    -0.80300
O1362       O  0.02209119  0.50942508  0.92096818    -0.80300
O1363       O  0.38554517  0.50996729  0.95385502    -0.80200
O1364       O  0.47896750  0.52680024  0.88592488    -0.80300
O1365       O  0.41823668  0.50661087  0.50187427    -0.80300
O1366       O  0.37085201  0.46746798  0.89347228    -0.79700
O1367       O  0.03219833  0.97044259  0.97296244    -0.80300
C1368       C  0.02128548  0.49442577  0.99577322     1.09400
C1369       C  0.38132130  0.49186596  0.87535670     1.09300
C1370       C  0.00868269  0.53289249  0.90269187     1.09500
C1371       C  0.39540755  0.52304945  0.98384215     1.09300
O1372       O  0.40967364  0.93032359  0.48288003    -0.80200
O1373       O  0.49900880  0.95188457  0.86825161    -0.80300
O1374       O  0.99093969  0.91117838  0.93179963    -0.80300
O1375       O  0.41205443  0.91189281  0.91865588    -0.80200
O1376       O  0.42753230  0.93311336  0.86894915    -0.80300
O1377       O  0.48474693  0.92301976  0.48798248    -0.80300
O1378       O  0.35669840  0.94476178  0.96086510    -0.80200
O1379       O  0.04725832  0.94327455  0.90339185    -0.80300
Co1380     Co  0.45051784  0.96558833  0.98921459     1.51500
Co1381     Co  0.45322245  0.98046882  0.88150908     1.51700
Co1382     Co  0.00404348  0.96072548  0.92613460     1.51600
Co1383     Co  0.40017383  0.96076080  0.93783858     1.51500
O1384       O  0.45302588  0.97648902  0.93574483    -1.42200
C1385       C  0.37561356  0.93639708  0.98749643     1.09400
C1386       C  0.03098519  0.93853976  0.87358979     1.09500
C1387       C  0.99412606  0.90178234  0.96244825     1.09400
C1388       C  0.41623638  0.90738444  0.88588121     1.09400
C1389       C  0.36406098  0.82086625  0.86225689    -0.26400
C1390       C  0.35935406  0.82183677  0.82549193    -0.14500
C1391       C  0.38102011  0.84720034  0.80885657     0.36100
C1392       C  0.40182781  0.87261521  0.82915199    -0.25900
C1393       C  0.40247525  0.87419648  0.86594814    -0.15100
C1394       C  0.38523463  0.84653294  0.88238679     0.37200
N1395       N  0.38830300  0.84471334  0.91967879    -0.89400
H1396       H  0.35080708  0.80088754  0.87627019     0.18300
H1397       H  0.41615435  0.89260514  0.81570002     0.18300
N1398       N  0.38229000  0.84900567  0.77146049    -0.88400
H1399       H  0.39985141  0.82007518  0.92470738     0.35700
H1400       H  0.36182620  0.84584889  0.92981090     0.40800
H1401       H  0.35640746  0.85408192  0.76070697     0.40400
H1402       H  0.39303202  0.82548760  0.75972002     0.35300
C1403       C  0.05299649  0.86931816  0.46225433    -0.26400
C1404       C  0.01524507  0.86934872  0.46894911    -0.14500
C1405       C  0.00008809  0.84051146  0.48502743     0.36100
C1406       C  0.02370956  0.81457177  0.49765706    -0.25900
C1407       C  0.06248243  0.81812594  0.49703875    -0.15100
C1408       C  0.07680521  0.84395820  0.47592175     0.37200
N1409       N  0.11579783  0.84648156  0.47125310    -0.89400
H1410       H  0.06439556  0.89082538  0.44862252     0.18300
H1411       H  0.01083374  0.79301886  0.50965971     0.18300
N1412       N  0.96113264  0.83684305  0.98932529    -0.88400
H1413       H  0.12200032  0.86865121  0.45755437     0.35700
H1414       H  0.12370921  0.82423414  0.45521393     0.40800
H1415       H  0.44634098  0.85704028  0.97796884     0.40400
H1416       H  0.45612190  0.83934390  0.01624289     0.35300
C1417       C  0.33019398  0.48851249  0.83123180    -0.26400
C1418       C  0.36677473  0.49665256  0.83979793    -0.14500
C1419       C  0.38907936  0.51078473  0.81440084     0.36100
C1420       C  0.37278616  0.52322963  0.78416975    -0.25900
C1421       C  0.33448095  0.52250285  0.77951142    -0.15100
C1422       C  0.31373796  0.50071620  0.80080150     0.37200
N1423       N  0.27502461  0.49520592  0.79418411    -0.89400
H1424       H  0.31371636  0.47521635  0.84957628     0.18300
H1425       H  0.39001373  0.53685025  0.76686497     0.18300
N1426       N  0.42809351  0.51392322  0.81983830    -0.88400
H1427       H  0.26322249  0.48254919  0.81463098     0.35700
H1428       H  0.27238808  0.47735567  0.77201461     0.40800
H1429       H  0.43514422  0.54073817  0.81919697     0.40400
H1430       H  0.44089092  0.49971439  0.79893173     0.35300
C1431       C  0.36516883  0.91003285  0.58035252    -0.26400
C1432       C  0.32674538  0.90882093  0.58191268    -0.14500
C1433       C  0.30574468  0.92758865  0.55751535     0.36100
C1434       C  0.32240121  0.93839957  0.52739271    -0.25900
C1435       C  0.35992982  0.93227628  0.52226552    -0.15100
C1436       C  0.38211969  0.92143397  0.55065375     0.37200
N1437       N  0.42157853  0.92011543  0.54863130    -0.89400
H1438       H  0.38230150  0.89952749  0.60056078     0.18300
H1439       H  0.30544810  0.94945158  0.00710840     0.18300
N1440       N  0.26680711  0.93179819  0.56113679    -0.88400
H1441       H  0.43343893  0.90953288  0.57081021     0.35700
H1442       H  0.43088870  0.94634617  0.54880099     0.40800
H1443       H  0.26067468  0.95895416  0.56134729     0.40400
H1444       H  0.25361391  0.91918008  0.03918458     0.35300
C1445       C  0.06841400  0.56457475  0.90422046    -0.26400
C1446       C  0.03007587  0.56574594  0.89855499    -0.14500
C1447       C  0.01441624  0.59685663  0.88585063     0.36100
C1448       C  0.03740187  0.62266762  0.87353060    -0.25900
C1449       C  0.07568764  0.61699218  0.87156128    -0.15100
C1450       C  0.09140261  0.59026134  0.89142241     0.37200
N1451       N  0.13070590  0.58692603  0.89496963    -0.89400
H1452       H  0.08084018  0.04203457  0.91608997     0.18300
H1453       H  0.02445691  0.64555113  0.86306760     0.18300
N1454       N  0.47547481  0.60270289  0.88422158    -0.88400
H1455       H  0.13776981  0.56445189  0.90821351     0.35700
H1456       H  0.14010125  0.60886922  0.91095420     0.40800
H1457       H  0.46481897  0.59931114  0.90894950     0.40400
H1458       H  0.46350332  0.58419190  0.86577487     0.35300
C1459       C  0.38162164  0.60714507  0.54279391    -0.26400
C1460       C  0.34315110  0.61120480  0.54055992    -0.14500
C1461       C  0.32308706  0.58816536  0.51596433     0.36100
C1462       C  0.34117545  0.56142811  0.49556386    -0.25900
C1463       C  0.37896897  0.55611362  0.49966671    -0.15100
C1464       C  0.39963120  0.57975374  0.52278784     0.37200
N1465       N  0.43885135  0.57552847  0.52616208    -0.89400
H1466       H  0.39805518  0.62434227  0.56059727     0.18300
H1467       H  0.32509842  0.54325451  0.47806909     0.18300
N1468       N  0.28383929  0.59088681  0.51258660    -0.88400
H1469       H  0.44997668  0.59437515  0.54487376     0.35700
H1470       H  0.45004055  0.58059394  0.00216058     0.40800
H1471       H  0.27710579  0.59527684  0.48648357     0.40400
H1472       H  0.27243012  0.56657421  0.51819802     0.35300
C1473       C  0.01990292  0.89158893  0.82641829    -0.26400
C1474       C  0.04516530  0.91427392  0.84532820    -0.14500
C1475       C  0.08230302  0.91299048  0.83693139     0.36100
C1476       C  0.09362513  0.88841184  0.81011480    -0.25900
C1477       C  0.06872208  0.86456376  0.79139550    -0.15100
C1478       C  0.03121178  0.86653764  0.79993938     0.37200
N1479       N  0.00446113  0.84296913  0.78315168    -0.89400
H1480       H  0.99105551  0.89247322  0.83303712     0.18300
H1481       H  0.12263486  0.88721084  0.80420017     0.18300
N1482       N  0.10824387  0.93664415  0.85542501    -0.88400
H1483       H  0.98404232  0.85826250  0.77166950     0.35700
H1484       H  0.99226035  0.82886583  0.80240331     0.40800
H1485       H  0.10111478  0.96261993  0.84994460     0.40400
H1486       H  0.13474010  0.93209836  0.84598464     0.35300
C1487       C  0.04999135  0.57891966  0.54378370    -0.26400
C1488       C  0.06077434  0.56785040  0.57690501    -0.14500
C1489       C  0.05724240  0.53115922  0.58232242     0.36100
C1490       C  0.05075509  0.50640734  0.55335664    -0.25900
C1491       C  0.04455990  0.51749260  0.51945826    -0.15100
C1492       C  0.04319905  0.55440795  0.51501818     0.37200
N1493       N  0.03386099  0.56696364  0.98128925    -0.89400
H1494       H  0.04898845  0.60709752  0.53978705     0.18300
H1495       H  0.04697713  0.97856569  0.55776993     0.18300
N1496       N  0.05703665  0.51945252  0.61730214    -0.88400
H1497       H  0.03580944  0.59469065  0.98195426     0.35700
H1498       H  0.00628089  0.56090121  0.97558727     0.40800
H1499       H  0.03450563  0.53145263  0.62997758     0.40400
H1500       H  0.05304649  0.99194808  0.61677555     0.35300
C1501       C  0.58310233  0.09414698  0.10177596     0.86400
C1502       C  0.60925988  0.11522160  0.07990494    -0.53900
C1503       C  0.63087419  0.13877069  0.09834109     0.09300
C1504       C  0.62525593  0.13900135  0.13890901     0.20300
C1505       C  0.60985210  0.07664565  0.12736272    -0.54600
C1506       C  0.63207562  0.09916241  0.14740066     0.09400
C1507       C  0.56122862  0.12305894  0.12446357    -0.54100
C1508       C  0.58301186  0.14719589  0.14416939     0.10000
H1509       H  0.61127889  0.11185618  0.05153142     0.14500
H1510       H  0.64320376  0.15834161  0.15437458     0.00200
H1511       H  0.61482143  0.04854439  0.12592418     0.14800
H1512       H  0.53148270  0.12520944  0.12330450     0.14600
C1513       C  0.57064086  0.18286156  0.16515293     0.29900
C1514       C  0.57227655  0.24961879  0.20115559     0.29900
C1515       C  0.58659589  0.21303622  0.14643990    -0.06300
C1516       C  0.53156780  0.19940713  0.17412661    -0.07100
C1517       C  0.58904687  0.18553954  0.20144836    -0.07000
C1518       C  0.58791194  0.24671426  0.16456415    -0.06300
C1519       C  0.53240198  0.23376272  0.19309878    -0.07100
C1520       C  0.58933908  0.21923433  0.21959135    -0.07000
C1521       C  0.58165879  0.27057885  0.13959012    -0.32400
N1522       N  0.57809236  0.25348427  0.10754344     0.14100
C1523       C  0.57893556  0.21856471  0.11192993    -0.32400
H1524       H  0.56921824  0.19838368  0.09234687     0.16100
C1525       C  0.99588445  0.24337109  0.19892629    -0.31300
N1526       N  0.97322974  0.21725814  0.18401025     0.12900
C1527       C  0.99460556  0.19066230  0.16875257    -0.31300
C1528       C  0.58400947  0.21373189  0.25424022    -0.31600
N1529       N  0.58356138  0.17879940  0.25869282     0.13400
H1530       H  0.57558336  0.23400180  0.27396143     0.16000
C1531       C  0.58488084  0.16167481  0.22657329    -0.31600
H1532       H  0.57612985  0.13463844  0.22116547     0.16000
H1533       H  0.98405622  0.16654083  0.15508679     0.16000
H1534       H  0.57274069  0.29753003  0.14518253     0.16100
H1535       H  0.98643630  0.26781136  0.21247388     0.16000
C1536       C  0.58619389  0.33709784  0.26540001     0.86400
C1537       C  0.61344866  0.31519577  0.28657370    -0.53900
C1538       C  0.63592887  0.29370242  0.26719334     0.09300
C1539       C  0.62813912  0.29490245  0.22694233     0.20300
C1540       C  0.60938817  0.35638662  0.23940372    -0.54600
C1541       C  0.63260505  0.33548848  0.21990994     0.09400
C1542       C  0.56408613  0.30832162  0.24187959    -0.54100
C1543       C  0.58571009  0.28534529  0.22172970     0.10000
H1544       H  0.61460424  0.31637000  0.31510840     0.14500
H1545       H  0.64655042  0.27682685  0.21109842     0.00200
H1546       H  0.60909160  0.38500493  0.23874653     0.14800
H1547       H  0.53477166  0.30441644  0.24200423     0.14600
C1548       C  0.72659916  0.06976152  0.20786129     0.29900
C1549       C  0.66480440  0.08535038  0.16985832     0.29900
C1550       C  0.73242348  0.08934276  0.17555736    -0.06300
C1551       C  0.70603371  0.03706519  0.19260667    -0.07100
C1552       C  0.69595114  0.08982661  0.22807315    -0.07000
C1553       C  0.70166254  0.10097733  0.15891138    -0.06300
C1554       C  0.67392164  0.04378713  0.17227948    -0.07100
C1555       C  0.66388573  0.09715284  0.20872088    -0.07000
C1556       C  0.71455827  0.12670049  0.13851014    -0.32400
N1557       N  0.75153931  0.12347182  0.13518258     0.14100
C1558       C  0.76244484  0.09925905  0.15772068    -0.32400
H1559       H  0.78973531  0.08845262  0.16053376     0.16100
C1560       C  0.65532232  0.01083874  0.16994272    -0.31300
N1561       N  0.67502155  0.48657844  0.18779703     0.12900
C1562       C  0.70511782  0.00293054  0.20226822    -0.31300
C1563       C  0.63556033  0.09327029  0.23138994    -0.31600
N1564       N  0.64855794  0.08891175  0.26421388     0.13400
H1565       H  0.60734538  0.08818501  0.22347267     0.16000
C1566       C  0.68505178  0.08402239  0.26140157    -0.31600
H1567       H  0.70214964  0.07282851  0.28132985     0.16000
H1568       H  0.72502474  0.48999339  0.21843729     0.16000
H1569       H  0.69900934  0.14912068  0.13153446     0.16100
H1570       H  0.62926435  0.50464864  0.15688197     0.16000
C1571       C  0.82229374  0.13778166  0.06513516     0.86400
C1572       C  0.84394206  0.16307945  0.09238111    -0.53900
C1573       C  0.82201147  0.18357638  0.11437298     0.09300
C1574       C  0.77963894  0.17815048  0.10483640     0.20300
C1575       C  0.79663704  0.11735687  0.08824607    -0.54600
C1576       C  0.77430594  0.13824069  0.10914051     0.09400
C1577       C  0.79706036  0.16223158  0.04441804    -0.54100
C1578       C  0.77317509  0.18227428  0.06411991     0.10000
H1579       H  0.87332602  0.16229995  0.09695467     0.14500
H1580       H  0.76114406  0.19497059  0.12186204     0.00200
H1581       H  0.79690962  0.08855926  0.08872335     0.14800
H1582       H  0.79635427  0.16135484  0.01600836     0.14600
C1583       C  0.59811304  0.13193241  0.34252700     0.86400
C1584       C  0.57664637  0.15411014  0.31597195    -0.53900
C1585       C  0.59777289  0.16387117  0.28952350     0.09300
C1586       C  0.63766466  0.15179264  0.29169132     0.20300
C1587       C  0.61449143  0.10080324  0.31885072    -0.54600
C1588       C  0.63506655  0.11169929  0.29259695     0.09400
C1589       C  0.63143353  0.15567797  0.35495723    -0.54100
C1590       C  0.65258744  0.16583780  0.32802569     0.10000
H1591       H  0.54744928  0.15965623  0.31568536     0.14500
H1592       H  0.65400060  0.15994961  0.26938831     0.00200
H1593       H  0.60876606  0.07287152  0.32151364     0.14800
H1594       H  0.63641237  0.16381915  0.38224114     0.14600
C1595       C  0.83614702  0.23535330  0.21725380     0.29900
C1596       C  0.83498739  0.20170652  0.15076777     0.29900
C1597       C  0.81932521  0.25592677  0.18806692    -0.06300
C1598       C  0.87551334  0.22712201  0.20140363    -0.07100
C1599       C  0.81939606  0.19830792  0.21346271    -0.07000
C1600       C  0.81860201  0.23872489  0.15443803    -0.06300
C1601       C  0.87477792  0.20934910  0.16692998    -0.07100
C1602       C  0.81895862  0.18114588  0.17971264    -0.07000
C1603       C  0.82546524  0.26452893  0.13178258    -0.32400
N1604       N  0.82862724  0.29671129  0.14913157     0.14100
C1605       C  0.82688009  0.29118077  0.18347200    -0.32400
H1606       H  0.83630560  0.31032976  0.20416709     0.16100
C1607       C  0.91121579  0.20389811  0.15752667    -0.31300
N1608       N  0.93391804  0.21777658  0.18407746     0.12900
C1609       C  0.91257545  0.23205863  0.21068133    -0.31300
C1610       C  0.82617102  0.14561412  0.18412703    -0.31600
N1611       N  0.82937229  0.13985397  0.21843677     0.13400
H1612       H  0.83395426  0.12625214  0.16333853     0.16000
C1613       C  0.82676929  0.17207497  0.23602081    -0.31600
H1614       H  0.83659109  0.17711950  0.26261866     0.16000
H1615       H  0.92330306  0.24462911  0.23513179     0.16000
H1616       H  0.83440320  0.25934605  0.10526411     0.16100
H1617       H  0.92059699  0.19121847  0.13301817     0.16000
C1618       C  0.80829768  0.37923625  0.10001108     0.86400
C1619       C  0.79115082  0.35336028  0.07093455    -0.53900
C1620       C  0.77275679  0.32634161  0.08344282     0.09300
C1621       C  0.77249760  0.32677008  0.12312184     0.20300
C1622       C  0.77632485  0.39112606  0.12423432    -0.54600
C1623       C  0.75712973  0.36325402  0.13585537     0.09400
C1624       C  0.83241718  0.35453097  0.12241672    -0.54100
C1625       C  0.81286860  0.32720835  0.13424977     0.10000
H1626       H  0.79429111  0.35552824  0.04294122     0.14500
H1627       H  0.75737417  0.30377885  0.13241491     0.00200
H1628       H  0.77044147  0.41875178  0.13116604     0.14800
H1629       H  0.86181737  0.35634577  0.12707583     0.14600
C1630       C  0.81525542  0.05365263  0.26366540     0.86400
C1631       C  0.79951332  0.07758044  0.29449214    -0.53900
C1632       C  0.78000195  0.10556230  0.28416058     0.09300
C1633       C  0.77653828  0.10715805  0.24466122     0.20300
C1634       C  0.78247919  0.04276800  0.23903277    -0.54600
C1635       C  0.76148120  0.07073440  0.23011100     0.09400
C1636       C  0.83732987  0.08032253  0.24262483    -0.54100
C1637       C  0.81613294  0.10834907  0.23296403     0.10000
H1638       H  0.80490776  0.07369184  0.32206146     0.14500
H1639       H  0.75998329  0.13032163  0.23688841     0.00200
H1640       H  0.77771836  0.01574485  0.22868100     0.14800
H1641       H  0.86635367  0.07864695  0.23702979     0.14600
C1642       C  0.72345659  0.36375847  0.15858644     0.29900
C1643       C  0.66383886  0.35088774  0.19824642     0.29900
C1644       C  0.73101490  0.34351601  0.19092249    -0.06300
C1645       C  0.70304223  0.39722657  0.17303440    -0.07100
C1646       C  0.69205932  0.34329357  0.13951557    -0.07000
C1647       C  0.70127868  0.33691873  0.21066050    -0.06300
C1648       C  0.67222893  0.39157369  0.19393389    -0.07100
C1649       C  0.66128549  0.33690191  0.15955800    -0.07000
C1650       C  0.71547083  0.32679543  0.24192450    -0.32400
N1651       N  0.75257582  0.32127321  0.24004157     0.14100
C1652       C  0.76217967  0.33550842  0.21002471    -0.32400
H1653       H  0.78933319  0.34397667  0.20429908     0.16100
C1654       C  0.65566575  0.42523486  0.19935128    -0.31300
N1655       N  0.67451291  0.44916952  0.18134594     0.12900
C1656       C  0.70276361  0.43202772  0.16512075    -0.31300
C1657       C  0.63166424  0.33881289  0.13655606    -0.31600
N1658       N  0.64288643  0.34228047  0.10347699     0.13400
H1659       H  0.60373869  0.34373681  0.14434952     0.16000
C1660       C  0.67935382  0.34765208  0.10597026    -0.31600
H1661       H  0.69510660  0.35845602  0.08565061     0.16000
H1662       H  0.72193585  0.44503856  0.14926945     0.16000
H1663       H  0.70036553  0.33294852  0.26529021     0.16100
H1664       H  0.63197049  0.43208976  0.21499234     0.16000
C1665       C  0.58767782  0.30170344  0.02465418     0.86400
C1666       C  0.56804254  0.27886458  0.05089869    -0.53900
C1667       C  0.59068304  0.26824359  0.07670586     0.09300
C1668       C  0.63030693  0.27999320  0.07447192     0.20300
C1669       C  0.60567694  0.33204054  0.04885280    -0.54600
C1670       C  0.62764626  0.32022886  0.07472183     0.09400
C1671       C  0.62059838  0.27789151  0.01113878    -0.54100
C1672       C  0.64323000  0.26670981  0.03767408     0.10000
H1673       H  0.53899943  0.27331770  0.05177105     0.14500
H1674       H  0.64776519  0.27108549  0.09647989     0.00200
H1675       H  0.59995161  0.36014916  0.04685899     0.14800
H1676       H  0.62480350  0.27035876  0.98364829     0.14600
C1677       C  0.83055463  0.29799942  0.30447448     0.86400
C1678       C  0.84855874  0.27308399  0.27567750    -0.53900
C1679       C  0.82471029  0.25499831  0.25314324     0.09300
C1680       C  0.78318937  0.26195169  0.26388411     0.20300
C1681       C  0.80244608  0.32131348  0.28526965    -0.54600
C1682       C  0.77768937  0.30320897  0.26374591     0.09400
C1683       C  0.80541702  0.27298960  0.32453898    -0.54100
C1684       C  0.77997594  0.25385766  0.30396707     0.10000
H1685       H  0.87801602  0.27119718  0.27253215     0.14500
H1686       H  0.76316274  0.24701674  0.24611084     0.00200
H1687       H  0.80231353  0.35019510  0.28829529     0.14800
H1688       H  0.80602752  0.27150303  0.35261193     0.14600
C1689       C  0.67822002  0.24339688  0.03584293     0.29900
C1690       C  0.74011931  0.20293441  0.04816650     0.29900
C1691       C  0.67261919  0.20903590  0.05340563    -0.06300
C1692       C  0.69958063  0.23083335  0.00278542    -0.07100
C1693       C  0.70898611  0.26163291  0.05784698    -0.07000
C1694       C  0.70312775  0.18826699  0.05890072    -0.06300
C1695       C  0.73176105  0.21010342  0.00840315    -0.07100
C1696       C  0.74031995  0.24104664  0.06434681    -0.07000
C1697       C  0.69025533  0.15756296  0.07171419    -0.32400
N1698       N  0.65426586  0.16217978  0.08014880     0.14100
C1699       C  0.64283868  0.19181883  0.06512392    -0.32400
H1700       H  0.61494271  0.19882248  0.05949808     0.16100
C1701       C  0.74919105  0.20726428  0.47607398    -0.31300
N1702       N  0.72938077  0.22588360  0.45256654     0.12900
C1703       C  0.69945740  0.24021172  0.46882112    -0.31300
C1704       C  0.76937085  0.26411977  0.06520447    -0.31600
N1705       N  0.75735426  0.29755758  0.06202716     0.13400
H1706       H  0.79766062  0.25628334  0.06228913     0.16000
C1707       C  0.72101670  0.29574494  0.05534305    -0.31600
H1708       H  0.70507748  0.31692141  0.04485307     0.16000
H1709       H  0.67861480  0.25563507  0.45611772     0.16000
H1710       H  0.70592162  0.13343392  0.07402662     0.16100
H1711       H  0.77402007  0.19250548  0.46981522     0.16000
C1712       C  0.68710136  0.18931995  0.32941569     0.29900
C1713       C  0.74812708  0.23076484  0.31855725     0.29900
C1714       C  0.68099660  0.22091283  0.30782775    -0.06300
C1715       C  0.70624916  0.20593421  0.36283817    -0.07100
C1716       C  0.71920698  0.17047492  0.31137091    -0.07000
C1717       C  0.71117119  0.24144609  0.30232899    -0.06300
C1718       C  0.73760983  0.22746937  0.35829512    -0.07100
C1719       C  0.75036842  0.19111053  0.30584722    -0.07000
C1720       C  0.69749738  0.27225691  0.29083606    -0.32400
N1721       N  0.66075885  0.26912973  0.28353565     0.14100
C1722       C  0.65038413  0.23929578  0.29811011    -0.32400
H1723       H  0.62319359  0.23385665  0.30639536     0.16100
C1724       C  0.75128887  0.23620115  0.39249876    -0.31300
N1725       N  0.73000145  0.21985263  0.41566722     0.12900
C1726       C  0.70296681  0.20161322  0.39777881    -0.31300
C1727       C  0.77931168  0.16750343  0.30592360    -0.31600
N1728       N  0.76684818  0.13382511  0.30749783     0.13400
H1729       H  0.80785927  0.17469648  0.30903989     0.16000
C1730       C  0.73072878  0.13619915  0.31376552    -0.31600
H1731       H  0.71429306  0.11472778  0.32207105     0.16000
H1732       H  0.68268701  0.18639253  0.41021352     0.16000
H1733       H  0.71228215  0.29621505  0.29758101     0.16100
H1734       H  0.77464470  0.25290438  0.40005109     0.16000
O1735       O  0.98794735  0.00006515  0.99973713    -0.80200
O1736       O  0.90896877  0.00885225  0.38649489    -0.80300
O1737       O  0.52209501  0.00942702  0.42102393    -0.80300
O1738       O  0.88553374  0.00992396  0.45385676    -0.80200
O1739       O  0.97899770  0.02677484  0.38593667    -0.80300
O1740       O  0.91823375  0.00662414  0.00187533    -0.80300
O1741       O  0.87087160  0.96743570  0.39345734    -0.79700
O1742       O  0.53221266  0.47044070  0.47298894    -0.80300
C1743       C  0.52129477  0.99444651  0.49577386     1.09400
C1744       C  0.88134180  0.99183078  0.37533783     1.09300
C1745       C  0.50869638  0.03288068  0.40272990     1.09500
C1746       C  0.89538536  0.02301226  0.48384630     1.09300
O1747       O  0.90964082  0.43033182  0.98288154    -0.80200
O1748       O  0.99903599  0.45186711  0.36827568    -0.80300
O1749       O  0.49098334  0.41117173  0.43179560    -0.80300
O1750       O  0.91207082  0.41185288  0.41862986    -0.80200
O1751       O  0.92755313  0.43308900  0.36893135    -0.80300
O1752       O  0.98472093  0.42301967  0.98798760    -0.80300
O1753       O  0.85672001  0.44471033  0.46085553    -0.80200
O1754       O  0.54729944  0.44330058  0.40341001    -0.80300
Co1755     Co  0.95053773  0.46558758  0.48921393     1.51500
Co1756     Co  0.95324661  0.48044389  0.38150938     1.51700
Co1757     Co  0.50406943  0.46072414  0.42615349     1.51600
Co1758     Co  0.90018593  0.46072104  0.43782628     1.51500
O1759       O  0.95303576  0.47646472  0.43574362    -1.42200
C1760       C  0.87564613  0.43638493  0.48749566     1.09400
C1761       C  0.53101876  0.43854159  0.37361324     1.09500
C1762       C  0.49414502  0.40177388  0.46244494     1.09400
C1763       C  0.91624552  0.40735554  0.38585163     1.09400
C1764       C  0.86413525  0.32078854  0.36220020    -0.26400
C1765       C  0.85935466  0.32181037  0.32544847    -0.14500
C1766       C  0.88097145  0.34720898  0.30881005     0.36100
C1767       C  0.90176756  0.37263403  0.32910479    -0.25900
C1768       C  0.90246827  0.37417794  0.36590122    -0.15100
C1769       C  0.88529407  0.34646893  0.38233068     0.37200
N1770       N  0.88842136  0.34461230  0.41961443    -0.89400
H1771       H  0.85094787  0.30075809  0.37620036     0.18300
H1772       H  0.91604844  0.39265498  0.31565480     0.18300
N1773       N  0.88221113  0.34903240  0.27141353    -0.88400
H1774       H  0.90004309  0.31999440  0.42460231     0.35700
H1775       H  0.86195690  0.34566856  0.42977612     0.40800
H1776       H  0.85632192  0.35410848  0.26067621     0.40400
H1777       H  0.89294671  0.32551989  0.25965381     0.35300
C1778       C  0.55301132  0.36937417  0.96230465    -0.26400
C1779       C  0.51524962  0.36936856  0.96894947    -0.14500
C1780       C  0.50009550  0.34051467  0.98500132     0.36100
C1781       C  0.52371629  0.31458263  0.99764688    -0.25900
C1782       C  0.56248728  0.31813713  0.99703599    -0.15100
C1783       C  0.57681559  0.34399368  0.97594658     0.37200
N1784       N  0.61580915  0.34651540  0.97128151    -0.89400
H1785       H  0.56441515  0.39090887  0.94871510     0.18300
H1786       H  0.51084217  0.29302834  0.00964961     0.18300
N1787       N  0.46112480  0.33684577  0.48936563    -0.88400
H1788       H  0.62201941  0.36871346  0.95762743     0.35700
H1789       H  0.62371071  0.32429188  0.95520321     0.40800
H1790       H  0.94633978  0.35711377  0.47811943     0.40400
H1791       H  0.95613254  0.33922296  0.51628852     0.35300
C1792       C  0.83019586  0.98849384  0.33122922    -0.26400
C1793       C  0.86678378  0.99661982  0.33978286    -0.14500
C1794       C  0.88907593  0.01077260  0.31438881     0.36100
C1795       C  0.87276889  0.02325077  0.28418165    -0.25900
C1796       C  0.83446413  0.02252524  0.27953371    -0.15100
C1797       C  0.81372604  0.00072810  0.30081778     0.37200
N1798       N  0.77501032  0.99522479  0.29420749    -0.89400
H1799       H  0.81372451  0.97518853  0.34957210     0.18300
H1800       H  0.88999135  0.03688349  0.26688295     0.18300
N1801       N  0.92809118  0.01391477  0.31981322    -0.88400
H1802       H  0.76321784  0.98253974  0.31464125     0.35700
H1803       H  0.77236593  0.97739937  0.27202020     0.40800
H1804       H  0.93512482  0.04074203  0.31924897     0.40400
H1805       H  0.94088331  0.99977566  0.29886083     0.35300
C1806       C  0.86513022  0.41005830  0.08036622    -0.26400
C1807       C  0.82670746  0.40885635  0.08193316    -0.14500
C1808       C  0.80571531  0.42763808  0.05754277     0.36100
C1809       C  0.82236601  0.43841145  0.02739917    -0.25900
C1810       C  0.85988965  0.43225893  0.02225902    -0.15100
C1811       C  0.88208062  0.42142236  0.05065095     0.37200
N1812       N  0.92153997  0.42009081  0.04862771    -0.89400
H1813       H  0.88226233  0.39957008  0.10058413     0.18300
H1814       H  0.80548006  0.44942362  0.50709475     0.18300
N1815       N  0.76679527  0.43194236  0.06122030    -0.88400
H1816       H  0.93340281  0.40962378  0.07086579     0.35700
H1817       H  0.93085210  0.44631152  0.04867836     0.40800
H1818       H  0.76074392  0.45911933  0.06150144     0.40400
H1819       H  0.75368845  0.41895015  0.53911154     0.35300
C1820       C  0.56843541  0.06454211  0.40424119    -0.26400
C1821       C  0.53009510  0.06572656  0.39859372    -0.14500
C1822       C  0.51443678  0.09684414  0.38591020     0.36100
C1823       C  0.53742195  0.12264053  0.37356390    -0.25900
C1824       C  0.57570764  0.11695832  0.37158449    -0.15100
C1825       C  0.59142371  0.09023393  0.39145253     0.37200
N1826       N  0.63072642  0.08692142  0.39503375    -0.89400
H1827       H  0.58086113  0.54199571  0.41610022     0.18300
H1828       H  0.52447831  0.14553246  0.36311585     0.18300
N1829       N  0.97549800  0.10272698  0.38436619    -0.88400
H1830       H  0.63778811  0.06447229  0.40831765     0.35700
H1831       H  0.64009867  0.10888774  0.41099906     0.40800
H1832       H  0.96490557  0.09937230  0.40912757     0.40400
H1833       H  0.96345918  0.08421101  0.36596689     0.35300
C1834       C  0.88167350  0.10716259  0.04282430    -0.26400
C1835       C  0.84320529  0.11126217  0.04053935    -0.14500
C1836       C  0.82315732  0.08826693  0.01589256     0.36100
C1837       C  0.84125057  0.06154668  0.99547912    -0.25900
C1838       C  0.87902473  0.05616935  0.99965222    -0.15100
C1839       C  0.89968422  0.07976673  0.02281985     0.37200
N1840       N  0.93889526  0.07548406  0.02625079    -0.89400
H1841       H  0.89809647  0.12430963  0.06068528     0.18300
H1842       H  0.82517956  0.04341267  0.97793799     0.18300
N1843       N  0.78391232  0.09099509  0.01249268    -0.88400
H1844       H  0.95003709  0.09440718  0.04487632     0.35700
H1845       H  0.94995085  0.08079798  0.50209630     0.40800
H1846       H  0.77719871  0.09543563  0.98639746     0.40400
H1847       H  0.77249725  0.06666796  0.01805018     0.35300
C1848       C  0.51993452  0.39155316  0.32648554    -0.26400
C1849       C  0.54519452  0.41426981  0.34535762    -0.14500
C1850       C  0.58232241  0.41301292  0.33692956     0.36100
C1851       C  0.59363575  0.38844479  0.31009886    -0.25900
C1852       C  0.56873535  0.36456277  0.29141742    -0.15100
C1853       C  0.53124043  0.36648482  0.30002271     0.37200
N1854       N  0.50451317  0.34281716  0.28334664    -0.89400
H1855       H  0.49109591  0.39241089  0.33313856     0.18300
H1856       H  0.62263862  0.38726888  0.30415434     0.18300
N1857       N  0.60826211  0.43667461  0.35541443    -0.88400
H1858       H  0.48400698  0.35803125  0.27189392     0.35700
H1859       H  0.49242494  0.32871439  0.30266172     0.40800
H1860       H  0.60110862  0.46265082  0.34995685     0.40400
H1861       H  0.63475194  0.43215097  0.34595040     0.35300
C1862       C  0.55004158  0.07888429  0.04376718    -0.26400
C1863       C  0.56078753  0.06782796  0.07690444    -0.14500
C1864       C  0.55721634  0.03114197  0.08233725     0.36100
C1865       C  0.55069818  0.00638392  0.05337964    -0.25900
C1866       C  0.54455766  0.01745467  0.01946647    -0.15100
C1867       C  0.54324978  0.05436573  0.01500671     0.37200
N1868       N  0.53376316  0.06701320  0.48131469    -0.89400
H1869       H  0.54905881  0.10705892  0.03975589     0.18300
H1870       H  0.54688542  0.47854909  0.05780331     0.18300
N1871       N  0.55703574  0.01944652  0.11732254    -0.88400
H1872       H  0.53571058  0.09474044  0.48198252     0.35700
H1873       H  0.50617721  0.06095000  0.47564552     0.40800
H1874       H  0.53460017  0.03155842  0.13005910     0.40400
H1875       H  0.55290404  0.49196209  0.11681046     0.35300
C1876       C  0.58311120  0.09415925  0.60175930     0.86400
C1877       C  0.60926091  0.11522292  0.57987267    -0.53900
C1878       C  0.63088437  0.13877010  0.59829952     0.09300
C1879       C  0.62528192  0.13900905  0.63887219     0.20300
C1880       C  0.60986857  0.07665509  0.62733964    -0.54600
C1881       C  0.63209794  0.09917021  0.64737317     0.09400
C1882       C  0.56125072  0.12307540  0.62444958    -0.54100
C1883       C  0.58304237  0.14720989  0.64414604     0.10000
H1884       H  0.61126248  0.11185395  0.55149721     0.14500
H1885       H  0.64323352  0.15835166  0.65432997     0.00200
H1886       H  0.61482332  0.04855274  0.62591408     0.14800
H1887       H  0.53150490  0.12522856  0.62330057     0.14600
C1888       C  0.57067440  0.18287497  0.66513201     0.29900
C1889       C  0.57227147  0.24963721  0.70112578     0.29900
C1890       C  0.58661486  0.21305432  0.64641803    -0.06300
C1891       C  0.53159051  0.19939796  0.67410852    -0.07100
C1892       C  0.58909100  0.18556932  0.70142056    -0.07000
C1893       C  0.58789426  0.24673971  0.66453366    -0.06300
C1894       C  0.53240681  0.23375904  0.69307084    -0.07100
C1895       C  0.58935198  0.21926455  0.71956265    -0.07000
C1896       C  0.58159116  0.27058877  0.63955570    -0.32400
N1897       N  0.57806092  0.25347951  0.60751536     0.14100
C1898       C  0.57895668  0.21856396  0.61190745    -0.32400
H1899       H  0.56925784  0.19836905  0.59233036     0.16100
C1900       C  0.99588635  0.24335847  0.69888345    -0.31300
N1901       N  0.97324339  0.21722805  0.68398425     0.12900
C1902       C  0.99463088  0.19063230  0.66874078    -0.31300
C1903       C  0.58401666  0.21376083  0.75421003    -0.31600
N1904       N  0.58359784  0.17882871  0.75866268     0.13400
H1905       H  0.57558749  0.23402727  0.77393378     0.16000
C1906       C  0.58494869  0.16170373  0.72654527    -0.31600
H1907       H  0.57621744  0.13466320  0.72113465     0.16000
H1908       H  0.98409203  0.16649859  0.65508993     0.16000
H1909       H  0.57261468  0.29752619  0.64513562     0.16100
H1910       H  0.98642773  0.26780513  0.71241096     0.16000
C1911       C  0.58618787  0.33710147  0.76538007     0.86400
C1912       C  0.61342720  0.31518293  0.78655762    -0.53900
C1913       C  0.63591859  0.29369743  0.76717971     0.09300
C1914       C  0.62814094  0.29491034  0.72692739     0.20300
C1915       C  0.60940447  0.35639440  0.73940110    -0.54600
C1916       C  0.63262643  0.33549670  0.71990989     0.09400
C1917       C  0.56408125  0.30833775  0.74184618    -0.54100
C1918       C  0.58570687  0.28536409  0.72169783     0.10000
H1919       H  0.61457000  0.31634786  0.81509227     0.14500
H1920       H  0.64655298  0.27683483  0.71108453     0.00200
H1921       H  0.60911880  0.38501426  0.73875620     0.14800
H1922       H  0.53476755  0.30442571  0.74197280     0.14600
C1923       C  0.72658677  0.06979120  0.70790914     0.29900
C1924       C  0.66480991  0.08535855  0.66985944     0.29900
C1925       C  0.73242799  0.08933960  0.67558708    -0.06300
C1926       C  0.70600200  0.03709088  0.69268552    -0.07100
C1927       C  0.69594430  0.08988976  0.72809170    -0.07000
C1928       C  0.70167365  0.10094970  0.65890926    -0.06300
C1929       C  0.67391067  0.04380280  0.67232898    -0.07100
C1930       C  0.66388162  0.09720010  0.70871763    -0.07000
C1931       C  0.71456133  0.12666143  0.63849888    -0.32400
N1932       N  0.75154690  0.12347697  0.63522156     0.14100
C1933       C  0.76245735  0.09928503  0.65778099    -0.32400
H1934       H  0.78975212  0.08849799  0.66061803     0.16100
C1935       C  0.65534992  0.01083704  0.66991371    -0.31300
N1936       N  0.67503459  0.48658268  0.68778807     0.12900
C1937       C  0.70509989  0.00294489  0.70231602    -0.31300
C1938       C  0.63554865  0.09329166  0.73137430    -0.31600
N1939       N  0.64853205  0.08892930  0.76420215     0.13400
H1940       H  0.60734679  0.08815455  0.72343664     0.16000
C1941       C  0.68502933  0.08407521  0.76141064    -0.31600
H1942       H  0.70211807  0.07287427  0.78134113     0.16000
H1943       H  0.72499398  0.49000703  0.71849840     0.16000
H1944       H  0.69899765  0.14905336  0.63148379     0.16100
H1945       H  0.62933355  0.50462540  0.65678272     0.16000
C1946       C  0.82226439  0.13774443  0.56515103     0.86400
C1947       C  0.84392752  0.16304977  0.59238620    -0.53900
C1948       C  0.82200889  0.18356571  0.61437698     0.09300
C1949       C  0.77963591  0.17814451  0.60484708     0.20300
C1950       C  0.79661583  0.11733901  0.58827857    -0.54600
C1951       C  0.77430135  0.13823577  0.60917011     0.09400
C1952       C  0.79703421  0.16218635  0.54442644    -0.54100
C1953       C  0.77317085  0.18225605  0.56412547     0.10000
H1954       H  0.87331020  0.16225078  0.59696428     0.14500
H1955       H  0.76114595  0.19497396  0.62186931     0.00200
H1956       H  0.79688181  0.08854255  0.58877145     0.14800
H1957       H  0.79631396  0.16128740  0.51601510     0.14600
C1958       C  0.59809625  0.13196604  0.84250554     0.86400
C1959       C  0.57664856  0.15416372  0.81595259    -0.53900
C1960       C  0.59778894  0.16390901  0.78950488     0.09300
C1961       C  0.63767065  0.15180513  0.79167735     0.20300
C1962       C  0.61445166  0.10082926  0.81882492    -0.54600
C1963       C  0.63503574  0.11171753  0.79257642     0.09400
C1964       C  0.63143356  0.15568962  0.85493961    -0.54100
C1965       C  0.65260109  0.16583644  0.82801107     0.10000
H1966       H  0.54745593  0.15973246  0.81566671     0.14500
H1967       H  0.65401768  0.15995161  0.76937731     0.00200
H1968       H  0.60871006  0.07289987  0.82148358     0.14800
H1969       H  0.63640812  0.16383281  0.88222395     0.14600
C1970       C  0.83616792  0.23534737  0.71726955     0.29900
C1971       C  0.83499318  0.20169718  0.65077454     0.29900
C1972       C  0.81934291  0.25591824  0.68808510    -0.06300
C1973       C  0.87553153  0.22710565  0.70140560    -0.07100
C1974       C  0.81940986  0.19830145  0.71347594    -0.07000
C1975       C  0.81861027  0.23871726  0.65445515    -0.06300
C1976       C  0.87478636  0.20933050  0.66693081    -0.07100
C1977       C  0.81897326  0.18113807  0.67972313    -0.07000
C1978       C  0.82545839  0.26452445  0.63180104    -0.32400
N1979       N  0.82862453  0.29670497  0.64915326     0.14100
C1980       C  0.82688509  0.29117483  0.68349383    -0.32400
H1981       H  0.83630563  0.31032555  0.70418919     0.16100
C1982       C  0.91122062  0.20385671  0.65752250    -0.31300
N1983       N  0.93393180  0.21773207  0.68406688     0.12900
C1984       C  0.91259818  0.23202765  0.71067284    -0.31300
C1985       C  0.82620334  0.14560972  0.68413520    -0.31600
N1986       N  0.82939482  0.13984603  0.71844388     0.13400
H1987       H  0.83400389  0.12625423  0.66334630     0.16000
C1988       C  0.82678402  0.17206556  0.73603060    -0.31600
H1989       H  0.83661489  0.17710867  0.76262542     0.16000
H1990       H  0.92333425  0.24460379  0.73511761     0.16000
H1991       H  0.83436338  0.25934847  0.60527198     0.16100
H1992       H  0.92059271  0.19116828  0.63301418     0.16000
C1993       C  0.80833777  0.37921002  0.60000036     0.86400
C1994       C  0.79120960  0.35331831  0.57092933    -0.53900
C1995       C  0.77279443  0.32631935  0.58344510     0.09300
C1996       C  0.77251484  0.32676825  0.62312496     0.20300
C1997       C  0.77635122  0.39111800  0.62420281    -0.54600
C1998       C  0.75715022  0.36325753  0.63583790     0.09400
C1999       C  0.83244285  0.35451706  0.62243030    -0.54100
C2000       C  0.81288048  0.32720612  0.63427066     0.10000
H2001       H  0.79437128  0.35546511  0.54293532     0.14500
H2002       H  0.75738195  0.30378492  0.63242254     0.00200
H2003       H  0.77046326  0.41874786  0.63111117     0.14800
H2004       H  0.86184315  0.35632660  0.62709292     0.14600
C2005       C  0.81527461  0.05364456  0.76366368     0.86400
C2006       C  0.79957548  0.07758532  0.79450715    -0.53900
C2007       C  0.78006187  0.10557670  0.78419237     0.09300
C2008       C  0.77656134  0.10716815  0.74469513     0.20300
C2009       C  0.78246814  0.04277718  0.73906167    -0.54600
C2010       C  0.76147140  0.07075203  0.73016066     0.09400
C2011       C  0.83734049  0.08030041  0.74260261    -0.54100
C2012       C  0.81614828  0.10833957  0.73296368     0.10000
H2013       H  0.80499498  0.07369274  0.82207160     0.14500
H2014       H  0.76000920  0.13033778  0.73693406     0.00200
H2015       H  0.77769370  0.01575843  0.72870299     0.14800
H2016       H  0.86635940  0.07860964  0.73698782     0.14600
C2017       C  0.72348337  0.36377239  0.65857959     0.29900
C2018       C  0.66387043  0.35089163  0.69824869     0.29900
C2019       C  0.73105193  0.34354760  0.69092955    -0.06300
C2020       C  0.70306253  0.39723582  0.67301852    -0.07100
C2021       C  0.69208433  0.34329955  0.63951548    -0.07000
C2022       C  0.70131564  0.33694115  0.71066756    -0.06300
C2023       C  0.67224694  0.39157843  0.69391530    -0.07100
C2024       C  0.66132503  0.33688584  0.65956922    -0.07000
C2025       C  0.71550487  0.32681608  0.74193098    -0.32400
N2026       N  0.75261238  0.32131465  0.74005551     0.14100
C2027       C  0.76221820  0.33555862  0.71004214    -0.32400
H2028       H  0.78937361  0.34402568  0.70431666     0.16100
C2029       C  0.65568471  0.42523843  0.69933219    -0.31300
N2030       N  0.67453898  0.44917547  0.68133572     0.12900
C2031       C  0.70279903  0.43204065  0.66512096    -0.31300
C2032       C  0.63168936  0.33876415  0.63658409    -0.31600
N2033       N  0.64288306  0.34226945  0.60350300     0.13400
H2034       H  0.60376552  0.34364635  0.64439809     0.16000
C2035       C  0.67934757  0.34767370  0.60598000    -0.31600
H2036       H  0.69507695  0.35849866  0.58565510     0.16000
H2037       H  0.72198994  0.44505775  0.64929357     0.16000
H2038       H  0.70039329  0.33295795  0.76529391     0.16100
H2039       H  0.63198858  0.43209245  0.71497224     0.16000
C2040       C  0.58768150  0.30170759  0.52465925     0.86400
C2041       C  0.56804389  0.27886359  0.55088876    -0.53900
C2042       C  0.59067534  0.26823902  0.57669356     0.09300
C2043       C  0.63030284  0.27999147  0.57448017     0.20300
C2044       C  0.60567037  0.33204542  0.54886949    -0.54600
C2045       C  0.62763868  0.32022810  0.57474091     0.09400
C2046       C  0.62061099  0.27790113  0.51114891    -0.54100
C2047       C  0.64324311  0.26672100  0.53768462     0.10000
H2048       H  0.53900265  0.27331003  0.55175755     0.14500
H2049       H  0.64775271  0.27107740  0.59649110     0.00200
H2050       H  0.59993706  0.36015352  0.54688156     0.14800
H2051       H  0.62481938  0.27036386  0.48366011     0.14600
C2052       C  0.83056712  0.29802065  0.80450010     0.86400
C2053       C  0.84857568  0.27309627  0.77570407    -0.53900
C2054       C  0.82472969  0.25501032  0.75316130     0.09300
C2055       C  0.78320722  0.26198012  0.76389485     0.20300
C2056       C  0.80247450  0.32133999  0.78528601    -0.54600
C2057       C  0.77771981  0.30324101  0.76375705     0.09400
C2058       C  0.80541675  0.27301370  0.82455549    -0.54100
C2059       C  0.77998009  0.25388570  0.80397692     0.10000
H2060       H  0.87803386  0.27119535  0.77256966     0.14500
H2061       H  0.76317993  0.24705163  0.74611728     0.00200
H2062       H  0.80235272  0.35022193  0.78830824     0.14800
H2063       H  0.80602318  0.27151131  0.85262607     0.14600
C2064       C  0.67824000  0.24341045  0.53584987     0.29900
C2065       C  0.74013207  0.20293206  0.54816397     0.29900
C2066       C  0.67263158  0.20903428  0.55337774    -0.06300
C2067       C  0.69961737  0.23087144  0.50279273    -0.07100
C2068       C  0.70899910  0.26162781  0.55788027    -0.07000
C2069       C  0.70313675  0.18826106  0.55887170    -0.06300
C2070       C  0.73179173  0.21013050  0.50840579    -0.07100
C2071       C  0.74033632  0.24103530  0.56436259    -0.07000
C2072       C  0.69026393  0.15755494  0.57167540    -0.32400
N2073       N  0.65427210  0.16217035  0.58009667     0.14100
C2074       C  0.64284762  0.19181362  0.56507856    -0.32400
H2075       H  0.61495295  0.19882614  0.55945733     0.16100
C2076       C  0.74916676  0.20724743  0.97607329    -0.31300
N2077       N  0.72935470  0.22586323  0.95256410     0.12900
C2078       C  0.69942413  0.24017909  0.96881482    -0.31300
C2079       C  0.76939096  0.26410358  0.56519940    -0.31600
N2080       N  0.75737458  0.29754254  0.56203678     0.13400
H2081       H  0.79767700  0.25626295  0.56224837     0.16000
C2082       C  0.72103151  0.29573952  0.55538802    -0.31600
H2083       H  0.70509037  0.31692054  0.54491026     0.16000
H2084       H  0.67858601  0.25560805  0.95611214     0.16000
H2085       H  0.70593375  0.13342943  0.57399979     0.16100
H2086       H  0.77400808  0.19250764  0.96981938     0.16000
C2087       C  0.68711756  0.18931947  0.82940164     0.29900
C2088       C  0.74813143  0.23078726  0.81856048     0.29900
C2089       C  0.68101474  0.22089758  0.80778562    -0.06300
C2090       C  0.70623413  0.20595913  0.86282795    -0.07100
C2091       C  0.71924802  0.17047611  0.81139394    -0.07000
C2092       C  0.71118372  0.24144363  0.80229616    -0.06300
C2093       C  0.73758156  0.22751473  0.85829543    -0.07100
C2094       C  0.75040252  0.19112250  0.80587743    -0.07000
C2095       C  0.69749509  0.27226453  0.79082841    -0.32400
N2096       N  0.66075825  0.26912879  0.78352103     0.14100
C2097       C  0.65039630  0.23928226  0.79807957    -0.32400
H2098       H  0.62320870  0.23383693  0.80636932     0.16100
C2099       C  0.75125187  0.23624113  0.89250462    -0.31300
N2100       N  0.72998981  0.21984853  0.91566306     0.12900
C2101       C  0.70297662  0.20159020  0.89776279    -0.31300
C2102       C  0.77935724  0.16752376  0.80596008    -0.31600
N2103       N  0.76690836  0.13383821  0.80753815     0.13400
H2104       H  0.80790288  0.17472840  0.80906296     0.16000
C2105       C  0.73078610  0.13620489  0.81380476    -0.31600
H2106       H  0.71435296  0.11472680  0.82210006     0.16000
H2107       H  0.68273494  0.18631263  0.91018447     0.16000
H2108       H  0.71226286  0.29622836  0.79760143     0.16100
H2109       H  0.77459276  0.25296103  0.90006580     0.16000
O2110       O  0.98795439  0.00008747  0.49971905    -0.80200
O2111       O  0.90894946  0.00888184  0.88651597    -0.80300
O2112       O  0.52209120  0.00942508  0.92096799    -0.80300
O2113       O  0.88554521  0.00996721  0.95385495    -0.80200
O2114       O  0.97896754  0.02680017  0.88592485    -0.80300
O2115       O  0.91823639  0.00661081  0.50187429    -0.80300
O2116       O  0.87085210  0.96746795  0.89347229    -0.79700
O2117       O  0.53219818  0.47044262  0.97296240    -0.80300
C2118       C  0.52128557  0.99442558  0.99577319     1.09400
C2119       C  0.88132141  0.99186589  0.87535665     1.09300
C2120       C  0.50868270  0.03289251  0.90269168     1.09500
C2121       C  0.89540771  0.02304947  0.98384200     1.09300
O2122       O  0.90967376  0.43032364  0.48288005    -0.80200
O2123       O  0.99900912  0.45188448  0.86825181    -0.80300
O2124       O  0.49093962  0.41117845  0.93179961    -0.80300
O2125       O  0.91205468  0.41189268  0.91865579    -0.80200
O2126       O  0.92753264  0.43311323  0.86894912    -0.80300
O2127       O  0.98474706  0.42301991  0.48798241    -0.80300
O2128       O  0.85669844  0.44476141  0.96086479    -0.80200
O2129       O  0.54725822  0.44327456  0.90339179    -0.80300
Co2130     Co  0.95051780  0.46558824  0.98921464     1.51500
Co2131     Co  0.95322270  0.48046870  0.88150912     1.51700
Co2132     Co  0.50404338  0.46072554  0.92613457     1.51600
Co2133     Co  0.90017395  0.46076059  0.93783851     1.51500
O2134       O  0.95302596  0.47648894  0.93574489    -1.42200
C2135       C  0.87561357  0.43639684  0.98749616     1.09400
C2136       C  0.53098509  0.43853975  0.87358976     1.09500
C2137       C  0.49412603  0.40178240  0.96244823     1.09400
C2138       C  0.91623665  0.40738433  0.88588114     1.09400
C2139       C  0.86406100  0.32086620  0.86225694    -0.26400
C2140       C  0.85935419  0.32183671  0.82549195    -0.14500
C2141       C  0.88102035  0.34720020  0.80885657     0.36100
C2142       C  0.90182801  0.37261510  0.82915198    -0.25900
C2143       C  0.90247541  0.37419641  0.86594810    -0.15100
C2144       C  0.88523471  0.34653292  0.88238680     0.37200
N2145       N  0.88830316  0.34471328  0.91967878    -0.89400
H2146       H  0.85080708  0.30088756  0.87627024     0.18300
H2147       H  0.91615464  0.39260500  0.81570002     0.18300
N2148       N  0.88229042  0.34900539  0.77146047    -0.88400
H2149       H  0.89985157  0.32007509  0.92470727     0.35700
H2150       H  0.86182640  0.34584881  0.92981096     0.40800
H2151       H  0.85640794  0.35408159  0.76070679     0.40400
H2152       H  0.89303241  0.32548723  0.75972015     0.35300
C2153       C  0.55299646  0.36931796  0.46225431    -0.26400
C2154       C  0.51524505  0.36934861  0.46894915    -0.14500
C2155       C  0.50008807  0.34051144  0.48502757     0.36100
C2156       C  0.52370953  0.31457180  0.49765726    -0.25900
C2157       C  0.56248240  0.31812585  0.49703885    -0.15100
C2158       C  0.57680516  0.34395802  0.47592174     0.37200
N2159       N  0.61579776  0.34648121  0.47125286    -0.89400
H2160       H  0.56439556  0.39082511  0.44862240     0.18300
H2161       H  0.51083369  0.29301892  0.50966000     0.18300
N2162       N  0.46113260  0.33684325  0.98932563    -0.88400
H2163       H  0.62200024  0.36865075  0.45755396     0.35700
H2164       H  0.62370890  0.32423368  0.45521374     0.40800
H2165       H  0.94634104  0.35704029  0.97796945     0.40400
H2166       H  0.95612197  0.33934282  0.01624297     0.35300
C2167       C  0.83019406  0.98851244  0.83123176    -0.26400
C2168       C  0.86677479  0.99665251  0.83979791    -0.14500
C2169       C  0.88907946  0.01078466  0.81440082     0.36100
C2170       C  0.87278629  0.02322955  0.78416970    -0.25900
C2171       C  0.83448106  0.02250283  0.77951141    -0.15100
C2172       C  0.81373804  0.00071615  0.80080147     0.37200
N2173       N  0.77502466  0.99520584  0.79418410    -0.89400
H2174       H  0.81371643  0.97521626  0.84957623     0.18300
H2175       H  0.89001387  0.03685014  0.76686494     0.18300
N2176       N  0.92809361  0.01392314  0.81983830    -0.88400
H2177       H  0.76322257  0.98254898  0.81463090     0.35700
H2178       H  0.77238812  0.97735564  0.77201457     0.40800
H2179       H  0.93514434  0.04073808  0.81919700     0.40400
H2180       H  0.94089106  0.99971433  0.79893175     0.35300
C2181       C  0.86516903  0.41003295  0.58035256    -0.26400
C2182       C  0.82674558  0.40882100  0.58191278    -0.14500
C2183       C  0.80574489  0.42758876  0.55751550     0.36100
C2184       C  0.82240139  0.43839959  0.52739283    -0.25900
C2185       C  0.85992999  0.43227632  0.52226559    -0.15100
C2186       C  0.88211988  0.42143415  0.55065382     0.37200
N2187       N  0.92157875  0.42011591  0.54863147    -0.89400
H2188       H  0.88230174  0.39952754  0.60056079     0.18300
H2189       H  0.80544808  0.44945145  0.00710806     0.18300
N2190       N  0.76680734  0.43179838  0.56113701    -0.88400
H2191       H  0.93343925  0.40953379  0.57081058     0.35700
H2192       H  0.93088870  0.44634671  0.54880077     0.40800
H2193       H  0.76067493  0.45895432  0.56134725     0.40400
H2194       H  0.75361380  0.41918002  0.03918441     0.35300
C2195       C  0.56841414  0.06457454  0.90422000    -0.26400
C2196       C  0.53007597  0.06574585  0.89855467    -0.14500
C2197       C  0.51441631  0.09685663  0.88585050     0.36100
C2198       C  0.53740194  0.12266760  0.87353046    -0.25900
C2199       C  0.57568772  0.11699216  0.87156111    -0.15100
C2200       C  0.59140273  0.09026127  0.89142216     0.37200
N2201       N  0.63070603  0.08692602  0.89496939    -0.89400
H2202       H  0.58084030  0.54203450  0.91608990     0.18300
H2203       H  0.52445698  0.14555119  0.86306762     0.18300
N2204       N  0.97547463  0.10270264  0.88422120    -0.88400
H2205       H  0.63776997  0.06445179  0.90821315     0.35700
H2206       H  0.64010140  0.10886915  0.91095405     0.40800
H2207       H  0.96481868  0.09931063  0.90894900     0.40400
H2208       H  0.96350330  0.08419166  0.86577439     0.35300
C2209       C  0.88162155  0.10714508  0.54279379    -0.26400
C2210       C  0.84315104  0.11120490  0.54055974    -0.14500
C2211       C  0.82308696  0.08816555  0.51596409     0.36100
C2212       C  0.84117531  0.06142825  0.49556361    -0.25900
C2213       C  0.87896882  0.05611366  0.49966650    -0.15100
C2214       C  0.89963107  0.07975377  0.52278766     0.37200
N2215       N  0.93885122  0.07552850  0.52616200    -0.89400
H2216       H  0.89805508  0.12434221  0.56059717     0.18300
H2217       H  0.82509825  0.04325468  0.47806882     0.18300
N2218       N  0.78383920  0.09088719  0.51258631    -0.88400
H2219       H  0.94997643  0.09437484  0.54487408     0.35700
H2220       H  0.95004075  0.08059429  0.00216065     0.40800
H2221       H  0.77710577  0.09527739  0.48648330     0.40400
H2222       H  0.77242987  0.06657465  0.51819763     0.35300
C2223       C  0.51990295  0.39158884  0.82641833    -0.26400
C2224       C  0.54516527  0.41427392  0.84532816    -0.14500
C2225       C  0.58230301  0.41299055  0.83693136     0.36100
C2226       C  0.59362519  0.38841193  0.81011476    -0.25900
C2227       C  0.56872221  0.36456373  0.79139553    -0.15100
C2228       C  0.53121192  0.36653745  0.79993953     0.37200
N2229       N  0.50446139  0.34296866  0.78315215    -0.89400
H2230       H  0.49105558  0.39247307  0.83303718     0.18300
H2231       H  0.62263494  0.38721101  0.80420010     0.18300
N2232       N  0.60824381  0.43664418  0.85542511    -0.88400
H2233       H  0.48404234  0.35826180  0.77167004     0.35700
H2234       H  0.49226089  0.32886544  0.80240400     0.40800
H2235       H  0.60111471  0.46261998  0.84994482     0.40400
H2236       H  0.63474004  0.43209844  0.84598474     0.35300
C2237       C  0.54999151  0.07891968  0.54378372    -0.26400
C2238       C  0.56077457  0.06785040  0.57690499    -0.14500
C2239       C  0.55724262  0.03115925  0.58232241     0.36100
C2240       C  0.55075528  0.00640732  0.55335666    -0.25900
C2241       C  0.54455990  0.01749259  0.51945829    -0.15100
C2242       C  0.54319898  0.05440799  0.51501825     0.37200
N2243       N  0.53386275  0.06696297  0.98128861    -0.89400
H2244       H  0.54898865  0.10709755  0.53978708     0.18300
H2245       H  0.54697653  0.47856572  0.55777031     0.18300
N2246       N  0.55703688  0.01945259  0.61730214    -0.88400
H2247       H  0.53581224  0.09468991  0.98195321     0.35700
H2248       H  0.50628242  0.06090145  0.97558670     0.40800
H2249       H  0.53450560  0.03145241  0.62997741     0.40400
H2250       H  0.55304629  0.49194843  0.61677593     0.35300
C2251       C  0.58310215  0.59414699  0.10177611     0.86400
C2252       C  0.60925952  0.61522169  0.07990500    -0.53900
C2253       C  0.63087394  0.63877075  0.09834108     0.09300
C2254       C  0.62525581  0.63900146  0.13890904     0.20300
C2255       C  0.60985207  0.57664572  0.12736276    -0.54600
C2256       C  0.63207555  0.59916252  0.14740069     0.09400
C2257       C  0.56122846  0.62305894  0.12446378    -0.54100
C2258       C  0.58301174  0.64719596  0.14416948     0.10000
H2259       H  0.61127831  0.61185633  0.05153146     0.14500
H2260       H  0.64320367  0.65834173  0.15437453     0.00200
H2261       H  0.61482175  0.54854453  0.12592402     0.14800
H2262       H  0.53148252  0.62520942  0.12330484     0.14600
C2263       C  0.57064078  0.68286167  0.16515298     0.29900
C2264       C  0.57227654  0.74961890  0.20115562     0.29900
C2265       C  0.58659596  0.71303628  0.14643998    -0.06300
C2266       C  0.53156773  0.69940732  0.17412656    -0.07100
C2267       C  0.58904670  0.68553960  0.20144846    -0.07000
C2268       C  0.58791200  0.74671435  0.16456422    -0.06300
C2269       C  0.53240193  0.73376291  0.19309872    -0.07100
C2270       C  0.58933895  0.71923439  0.21959140    -0.07000
C2271       C  0.58165885  0.77057891  0.13959018    -0.32400
N2272       N  0.57809245  0.75348428  0.10754351     0.14100
C2273       C  0.57893571  0.71856472  0.11192998    -0.32400
H2274       H  0.56921833  0.69838369  0.09234699     0.16100
C2275       C  0.99588454  0.74337124  0.19892608    -0.31300
N2276       N  0.97322979  0.71725830  0.18401003     0.12900
C2277       C  0.99460557  0.69066240  0.16875228    -0.31300
C2278       C  0.58400931  0.71373198  0.25424026    -0.31600
N2279       N  0.58356118  0.67879949  0.25869292     0.13400
H2280       H  0.57558326  0.73400194  0.27396144     0.16000
C2281       C  0.58488059  0.66167487  0.22657338    -0.31600
H2282       H  0.57612956  0.63463852  0.22116553     0.16000
H2283       H  0.98405618  0.66654098  0.15508648     0.16000
H2284       H  0.57274083  0.79753015  0.14518252     0.16100
H2285       H  0.98643644  0.76781149  0.21247366     0.16000
C2286       C  0.58619394  0.83709794  0.26540002     0.86400
C2287       C  0.61344869  0.81519587  0.28657367    -0.53900
C2288       C  0.63592892  0.79370251  0.26719336     0.09300
C2289       C  0.62813915  0.79490251  0.22694238     0.20300
C2290       C  0.60938825  0.85638669  0.23940373    -0.54600
C2291       C  0.63260513  0.83548853  0.21990994     0.09400
C2292       C  0.56408619  0.80832171  0.24187965    -0.54100
C2293       C  0.58571012  0.78534538  0.22172975     0.10000
H2294       H  0.61460424  0.81637007  0.31510840     0.14500
H2295       H  0.64655043  0.77682690  0.21109847     0.00200
H2296       H  0.60909170  0.88500499  0.23874657     0.14800
H2297       H  0.53477171  0.80441650  0.24200431     0.14600
C2298       C  0.72659912  0.56976158  0.20786127     0.29900
C2299       C  0.66480436  0.58535048  0.16985831     0.29900
C2300       C  0.73242343  0.58934280  0.17555734    -0.06300
C2301       C  0.70603365  0.53706525  0.19260665    -0.07100
C2302       C  0.69595109  0.58982669  0.22807313    -0.07000
C2303       C  0.70166250  0.60097740  0.15891137    -0.06300
C2304       C  0.67392154  0.54378721  0.17227951    -0.07100
C2305       C  0.66388571  0.59715294  0.20872086    -0.07000
C2306       C  0.71455825  0.62670056  0.13851013    -0.32400
N2307       N  0.75153927  0.62347186  0.13518258     0.14100
C2308       C  0.76244479  0.59925905  0.15772063    -0.32400
H2309       H  0.78973525  0.58845256  0.16053365     0.16100
C2310       C  0.65532212  0.51083887  0.16994287    -0.31300
N2311       N  0.67502169  0.98657834  0.18779697     0.12900
C2312       C  0.70511777  0.50293059  0.20226816    -0.31300
C2313       C  0.63556029  0.59327041  0.23138991    -0.31600
N2314       N  0.64855788  0.58891187  0.26421385     0.13400
H2315       H  0.60734534  0.58818522  0.22347261     0.16000
C2316       C  0.68505175  0.58402249  0.26140152    -0.31600
H2317       H  0.70214968  0.57282865  0.28132980     0.16000
H2318       H  0.72502474  0.98999334  0.21843739     0.16000
H2319       H  0.69900930  0.64912069  0.13153434     0.16100
H2320       H  0.62926459  0.00464843  0.15688174     0.16000
C2321       C  0.82229358  0.63778166  0.06513509     0.86400
C2322       C  0.84394196  0.66307948  0.09238099    -0.53900
C2323       C  0.82201138  0.68357640  0.11437288     0.09300
C2324       C  0.77963880  0.67815054  0.10483640     0.20300
C2325       C  0.79663695  0.61735685  0.08824607    -0.54600
C2326       C  0.77430587  0.63824071  0.10914051     0.09400
C2327       C  0.79706010  0.66223154  0.04441798    -0.54100
C2328       C  0.77317490  0.68227428  0.06411990     0.10000
H2329       H  0.87332590  0.66229995  0.09695458     0.14500
H2330       H  0.76114396  0.69497064  0.12186207     0.00200
H2331       H  0.79690960  0.58855927  0.08872343     0.14800
H2332       H  0.79635385  0.66135473  0.01600830     0.14600
C2333       C  0.59811306  0.63193245  0.34252706     0.86400
C2334       C  0.57664635  0.65411025  0.31597209    -0.53900
C2335       C  0.59777281  0.66387131  0.28952361     0.09300
C2336       C  0.63766461  0.65179277  0.29169133     0.20300
C2337       C  0.61449141  0.60080336  0.31885072    -0.54600
C2338       C  0.63506649  0.61169941  0.29259693     0.09400
C2339       C  0.63143357  0.65567794  0.35495726    -0.54100
C2340       C  0.65258744  0.66583785  0.32802572     0.10000
H2341       H  0.54744926  0.65965636  0.31568552     0.14500
H2342       H  0.65400052  0.65994974  0.26938833     0.00200
H2343       H  0.60876607  0.57287160  0.32151364     0.14800
H2344       H  0.63641248  0.66381903  0.38224121     0.14600
C2345       C  0.83614703  0.73535329  0.21725370     0.29900
C2346       C  0.83498740  0.70170649  0.15076768     0.29900
C2347       C  0.81932517  0.75592674  0.18806681    -0.06300
C2348       C  0.87551337  0.72712205  0.20140352    -0.07100
C2349       C  0.81939609  0.69830791  0.21346261    -0.07000
C2350       C  0.81860208  0.73872489  0.15443789    -0.06300
C2351       C  0.87477795  0.70934908  0.16692987    -0.07100
C2352       C  0.81895863  0.68114588  0.17971256    -0.07000
C2353       C  0.82546556  0.76452892  0.13178249    -0.32400
N2354       N  0.82862752  0.79671127  0.14913151     0.14100
C2355       C  0.82688010  0.79118070  0.18347191    -0.32400
H2356       H  0.83630570  0.81032961  0.20416705     0.16100
C2357       C  0.91121584  0.70389815  0.15752652    -0.31300
N2358       N  0.93391808  0.71777678  0.18407727     0.12900
C2359       C  0.91257548  0.73205886  0.21068118    -0.31300
C2360       C  0.82617099  0.64561416  0.18412704    -0.31600
N2361       N  0.82937231  0.63985397  0.21843675     0.13400
H2362       H  0.83395422  0.62625210  0.16333853     0.16000
C2363       C  0.82676932  0.67207497  0.23602071    -0.31600
H2364       H  0.83659107  0.67711950  0.26261857     0.16000
H2365       H  0.92330305  0.74462944  0.23513160     0.16000
H2366       H  0.83440374  0.75934603  0.10526409     0.16100
H2367       H  0.92059705  0.69121851  0.13301807     0.16000
C2368       C  0.80829773  0.87923615  0.10001100     0.86400
C2369       C  0.79115070  0.85336020  0.07093448    -0.53900
C2370       C  0.77275679  0.82634152  0.08344294     0.09300
C2371       C  0.77249777  0.82676999  0.12312199     0.20300
C2372       C  0.77632500  0.89112600  0.12423439    -0.54600
C2373       C  0.75712998  0.86325395  0.13585553     0.09400
C2374       C  0.83241739  0.85453089  0.12241655    -0.54100
C2375       C  0.81286885  0.82720829  0.13424973     0.10000
H2376       H  0.79429078  0.85552818  0.04294116     0.14500
H2377       H  0.75737439  0.80377875  0.13241513     0.00200
H2378       H  0.77044156  0.91875174  0.13116600     0.14800
H2379       H  0.86181757  0.85634568  0.12707549     0.14600
C2380       C  0.81525538  0.55365272  0.26366541     0.86400
C2381       C  0.79951330  0.57758054  0.29449209    -0.53900
C2382       C  0.78000195  0.60556242  0.28416058     0.09300
C2383       C  0.77653826  0.60715816  0.24466123     0.20300
C2384       C  0.78247911  0.54276812  0.23903285    -0.54600
C2385       C  0.76148116  0.57073451  0.23011103     0.09400
C2386       C  0.83732984  0.58032257  0.24262485    -0.54100
C2387       C  0.81613293  0.60834911  0.23296402     0.10000
H2388       H  0.80490773  0.57369190  0.32206144     0.14500
H2389       H  0.75998331  0.63032174  0.23688842     0.00200
H2390       H  0.77771821  0.51574497  0.22868111     0.14800
H2391       H  0.86635363  0.57864697  0.23702980     0.14600
C2392       C  0.72345683  0.86375842  0.15858656     0.29900
C2393       C  0.66383904  0.85088772  0.19824645     0.29900
C2394       C  0.73101505  0.84351586  0.19092256    -0.06300
C2395       C  0.70304259  0.89722653  0.17303456    -0.07100
C2396       C  0.69205954  0.84329361  0.13951564    -0.07000
C2397       C  0.70127878  0.83691856  0.21066050    -0.06300
C2398       C  0.67222924  0.89157366  0.19393402    -0.07100
C2399       C  0.66128570  0.83690197  0.15955804    -0.07000
C2400       C  0.71547086  0.82679525  0.24192451    -0.32400
N2401       N  0.75257586  0.82127303  0.24004162     0.14100
C2402       C  0.76217978  0.83550828  0.21002480    -0.32400
H2403       H  0.78933330  0.84397657  0.20429924     0.16100
C2404       C  0.65566596  0.92523479  0.19935130    -0.31300
N2405       N  0.67451311  0.94916943  0.18134593     0.12900
C2406       C  0.70276388  0.93202769  0.16512081    -0.31300
C2407       C  0.63166444  0.83881299  0.13655613    -0.31600
N2408       N  0.64288659  0.84228055  0.10347707     0.13400
H2409       H  0.60373891  0.84373691  0.14434961     0.16000
C2410       C  0.67935399  0.84765214  0.10597037    -0.31600
H2411       H  0.69510676  0.85845617  0.08565070     0.16000
H2412       H  0.72193602  0.94503862  0.14926947     0.16000
H2413       H  0.70036556  0.83294853  0.26529018     0.16100
H2414       H  0.63197065  0.93208971  0.21499226     0.16000
C2415       C  0.58767780  0.80170354  0.02465431     0.86400
C2416       C  0.56804255  0.77886470  0.05089883    -0.53900
C2417       C  0.59068306  0.76824367  0.07670596     0.09300
C2418       C  0.63030692  0.77999327  0.07447198     0.20300
C2419       C  0.60567703  0.83204062  0.04885290    -0.54600
C2420       C  0.62764635  0.82022892  0.07472191     0.09400
C2421       C  0.62059827  0.77789154  0.01113890    -0.54100
C2422       C  0.64322992  0.76670982  0.03767415     0.10000
H2423       H  0.53899945  0.77331780  0.05177123     0.14500
H2424       H  0.64776519  0.77108556  0.09647996     0.00200
H2425       H  0.59995180  0.86014925  0.04685908     0.14800
H2426       H  0.62480333  0.77035867  0.98364840     0.14600
C2427       C  0.83055470  0.79799936  0.30447448     0.86400
C2428       C  0.84855875  0.77308400  0.27567744    -0.53900
C2429       C  0.82471035  0.75499826  0.25314320     0.09300
C2430       C  0.78318948  0.76195158  0.26388416     0.20300
C2431       C  0.80244609  0.82131330  0.28526967    -0.54600
C2432       C  0.77768939  0.80320880  0.26374597     0.09400
C2433       C  0.80541715  0.77298952  0.32453899    -0.54100
C2434       C  0.77997605  0.75385759  0.30396712     0.10000
H2435       H  0.87801606  0.77119734  0.27253204     0.14500
H2436       H  0.76316285  0.74701661  0.24611088     0.00200
H2437       H  0.80231349  0.85019493  0.28829532     0.14800
H2438       H  0.80602759  0.77150301  0.35261196     0.14600
C2439       C  0.67821988  0.74339689  0.03584292     0.29900
C2440       C  0.74011911  0.70293439  0.04816650     0.29900
C2441       C  0.67261897  0.70903585  0.05340552    -0.06300
C2442       C  0.69958052  0.73083341  0.00278541    -0.07100
C2443       C  0.70898594  0.76163286  0.05784704    -0.07000
C2444       C  0.70312754  0.68826694  0.05890067    -0.06300
C2445       C  0.73176093  0.71010347  0.00840316    -0.07100
C2446       C  0.74031973  0.74104656  0.06434688    -0.07000
C2447       C  0.69025511  0.65756287  0.07171410    -0.32400
N2448       N  0.65426562  0.66217974  0.08014869     0.14100
C2449       C  0.64283843  0.69181876  0.06512374    -0.32400
H2450       H  0.61494245  0.69882234  0.05949783     0.16100
C2451       C  0.74919107  0.70726438  0.47607403    -0.31300
N2452       N  0.72938066  0.72588361  0.45256659     0.12900
C2453       C  0.69945722  0.74021167  0.46882118    -0.31300
C2454       C  0.76937066  0.76411965  0.06520471    -0.31600
N2455       N  0.75735414  0.79755746  0.06202743     0.13400
H2456       H  0.79766044  0.75628320  0.06228962     0.16000
C2457       C  0.72101661  0.79574487  0.05534326    -0.31600
H2458       H  0.70507743  0.81692140  0.04485330     0.16000
H2459       H  0.67861453  0.75563492  0.45611779     0.16000
H2460       H  0.70592139  0.63343384  0.07402655     0.16100
H2461       H  0.77402013  0.69250568  0.46981526     0.16000
C2462       C  0.68710134  0.68932002  0.32941573     0.29900
C2463       C  0.74812710  0.73076491  0.31855735     0.29900
C2464       C  0.68099663  0.72091292  0.30782777    -0.06300
C2465       C  0.70624912  0.70593429  0.36283821    -0.07100
C2466       C  0.71920697  0.67047501  0.31137098    -0.07000
C2467       C  0.71117123  0.74144623  0.30232910    -0.06300
C2468       C  0.73760980  0.72746946  0.35829520    -0.07100
C2469       C  0.75036844  0.69111060  0.30584734    -0.07000
C2470       C  0.69749741  0.77225714  0.29083628    -0.32400
N2471       N  0.66075892  0.76912985  0.28353571     0.14100
C2472       C  0.65038418  0.73929584  0.29811007    -0.32400
H2473       H  0.62319362  0.73385667  0.30639522     0.16100
C2474       C  0.75128879  0.73620127  0.39249887    -0.31300
N2475       N  0.73000137  0.71985270  0.41566727     0.12900
C2476       C  0.70296674  0.70161331  0.39777883    -0.31300
C2477       C  0.77931175  0.66750353  0.30592366    -0.31600
N2478       N  0.76684820  0.63382522  0.30749784     0.13400
H2479       H  0.80785933  0.67469656  0.30903984     0.16000
C2480       C  0.73072876  0.63619922  0.31376552    -0.31600
H2481       H  0.71429305  0.61472785  0.32207106     0.16000
H2482       H  0.68268691  0.68639263  0.41021350     0.16000
H2483       H  0.71228207  0.79621530  0.29758135     0.16100
H2484       H  0.77464458  0.75290454  0.40005126     0.16000
O2485       O  0.98794733  0.50006507  0.99973730    -0.80200
O2486       O  0.90896888  0.50885224  0.38649485    -0.80300
O2487       O  0.52209507  0.50942711  0.42102393    -0.80300
O2488       O  0.88553384  0.50992399  0.45385672    -0.80200
O2489       O  0.97899786  0.52677477  0.38593662    -0.80300
O2490       O  0.91823370  0.50662415  0.00187535    -0.80300
O2491       O  0.87087159  0.46743579  0.39345734    -0.79700
O2492       O  0.53221255  0.97044070  0.47298898    -0.80300
C2493       C  0.52129486  0.49444653  0.49577378     1.09400
C2494       C  0.88134185  0.49183085  0.37533782     1.09300
C2495       C  0.50869640  0.53288073  0.40272991     1.09500
C2496       C  0.89538549  0.52301234  0.48384624     1.09300
O2497       O  0.90964086  0.93033178  0.98288157    -0.80200
O2498       O  0.99903591  0.95186718  0.36827568    -0.80300
O2499       O  0.49098312  0.91117164  0.43179569    -0.80300
O2500       O  0.91207087  0.91185290  0.41862991    -0.80200
O2501       O  0.92755312  0.93308903  0.36893139    -0.80300
O2502       O  0.98472100  0.92301973  0.98798754    -0.80300
O2503       O  0.85672006  0.94471019  0.46085552    -0.80200
O2504       O  0.54729927  0.94330046  0.40341012    -0.80300
Co2505     Co  0.95053768  0.96558759  0.48921393     1.51500
Co2506     Co  0.95324653  0.98044393  0.38150941     1.51700
Co2507     Co  0.50406929  0.96072406  0.42615354     1.51600
Co2508     Co  0.90018591  0.96072102  0.43782631     1.51500
O2509       O  0.95303568  0.97646477  0.43574364    -1.42200
C2510       C  0.87564617  0.93638474  0.48749563     1.09400
C2511       C  0.53101865  0.93854155  0.37361332     1.09500
C2512       C  0.49414480  0.90177377  0.46244500     1.09400
C2513       C  0.91624555  0.90735557  0.38585167     1.09400
C2514       C  0.86413546  0.82078838  0.36220017    -0.26400
C2515       C  0.85935471  0.82181037  0.32544845    -0.14500
C2516       C  0.88097135  0.84720912  0.30881006     0.36100
C2517       C  0.90176751  0.87263409  0.32910482    -0.25900
C2518       C  0.90246827  0.87417797  0.36590125    -0.15100
C2519       C  0.88529410  0.84646891  0.38233068     0.37200
N2520       N  0.88842117  0.84461239  0.41961445    -0.89400
H2521       H  0.85094828  0.80075779  0.37620026     0.18300
H2522       H  0.91604836  0.89265508  0.31565484     0.18300
N2523       N  0.88221086  0.84903268  0.27141355    -0.88400
H2524       H  0.90004302  0.81999457  0.42460242     0.35700
H2525       H  0.86195663  0.84566855  0.42977596     0.40800
H2526       H  0.85632162  0.85410897  0.26067638     0.40400
H2527       H  0.89294643  0.82552020  0.25965376     0.35300
C2528       C  0.55301132  0.86937416  0.96230462    -0.26400
C2529       C  0.51524958  0.86936851  0.96894924    -0.14500
C2530       C  0.50009546  0.84051467  0.98500118     0.36100
C2531       C  0.52371621  0.81458280  0.99764713    -0.25900
C2532       C  0.56248723  0.81813728  0.99703617    -0.15100
C2533       C  0.57681556  0.84399372  0.97594664     0.37200
N2534       N  0.61580912  0.84651532  0.97128145    -0.89400
H2535       H  0.56441520  0.89090887  0.94871508     0.18300
H2536       H  0.51084207  0.79302867  0.00965002     0.18300
N2537       N  0.46112463  0.83684556  0.48936565    -0.88400
H2538       H  0.62201940  0.86871316  0.95762704     0.35700
H2539       H  0.62371058  0.82429160  0.95520334     0.40800
H2540       H  0.94633982  0.85711396  0.47811983     0.40400
H2541       H  0.95613282  0.83922299  0.51628879     0.35300
C2542       C  0.83019580  0.48849403  0.33122929    -0.26400
C2543       C  0.86678377  0.49661994  0.33978287    -0.14500
C2544       C  0.88907590  0.51077267  0.31438877     0.36100
C2545       C  0.87276879  0.52325082  0.28418164    -0.25900
C2546       C  0.83446405  0.52252531  0.27953373    -0.15100
C2547       C  0.81372596  0.50072825  0.30081785     0.37200
N2548       N  0.77501016  0.49522519  0.29420775    -0.89400
H2549       H  0.81372442  0.47518883  0.34957221     0.18300
H2550       H  0.88999124  0.53688353  0.26688290     0.18300
N2551       N  0.92809117  0.51391480  0.31981306    -0.88400
H2552       H  0.76321763  0.48254048  0.31464171     0.35700
H2553       H  0.77236548  0.47739958  0.27202063     0.40800
H2554       H  0.93512487  0.54074204  0.31924879     0.40400
H2555       H  0.94088322  0.49977576  0.29886058     0.35300
C2556       C  0.86513024  0.91005833  0.08036625    -0.26400
C2557       C  0.82670748  0.90885628  0.08193311    -0.14500
C2558       C  0.80571534  0.92763805  0.05754276     0.36100
C2559       C  0.82236606  0.93841152  0.02739921    -0.25900
C2560       C  0.85988970  0.93225900  0.02225908    -0.15100
C2561       C  0.88208066  0.92142244  0.05065101     0.37200
N2562       N  0.92154001  0.92009094  0.04862781    -0.89400
H2563       H  0.88226234  0.89957017  0.10058420     0.18300
H2564       H  0.80548002  0.94942323  0.50709448     0.18300
N2565       N  0.76679528  0.93194222  0.06122026    -0.88400
H2566       H  0.93340278  0.90962402  0.07086598     0.35700
H2567       H  0.93085210  0.94631164  0.04867840     0.40800
H2568       H  0.76074386  0.95911920  0.06150166     0.40400
H2569       H  0.75368842  0.91895016  0.53911157     0.35300
C2570       C  0.56843541  0.56454210  0.40424113    -0.26400
C2571       C  0.53009511  0.56572662  0.39859375    -0.14500
C2572       C  0.51443681  0.59684422  0.38591032     0.36100
C2573       C  0.53742200  0.62264057  0.37356400    -0.25900
C2574       C  0.57570769  0.61695831  0.37158453    -0.15100
C2575       C  0.59142374  0.59023386  0.39145245     0.37200
N2576       N  0.63072646  0.58692120  0.39503353    -0.89400
H2577       H  0.58086113  0.04199577  0.41610034     0.18300
H2578       H  0.52447836  0.64553249  0.36311595     0.18300
N2579       N  0.97549809  0.60272692  0.38436621    -0.88400
H2580       H  0.63778813  0.56447204  0.40831739     0.35700
H2581       H  0.64009885  0.60888749  0.41099882     0.40800
H2582       H  0.96490571  0.59937227  0.40912759     0.40400
H2583       H  0.96345926  0.58421089  0.36596700     0.35300
C2584       C  0.88167335  0.60716273  0.04282407    -0.26400
C2585       C  0.84320512  0.61126217  0.04053926    -0.14500
C2586       C  0.82315712  0.58826682  0.01589260     0.36100
C2587       C  0.84125038  0.56154652  0.99547920    -0.25900
C2588       C  0.87902453  0.55616926  0.99965223    -0.15100
C2589       C  0.89968403  0.57976678  0.02281968     0.37200
N2590       N  0.93889507  0.57548414  0.02625054    -0.89400
H2591       H  0.89809632  0.62430991  0.06068488     0.18300
H2592       H  0.82517937  0.54341242  0.97793815     0.18300
N2593       N  0.78391213  0.59099490  0.01249282    -0.88400
H2594       H  0.95003691  0.59440745  0.04487586     0.35700
H2595       H  0.94995094  0.58079767  0.50209627     0.40800
H2596       H  0.77719845  0.59543549  0.98639763     0.40400
H2597       H  0.77249715  0.56666773  0.01805039     0.35300
C2598       C  0.51993449  0.89155316  0.32648562    -0.26400
C2599       C  0.54519446  0.91426981  0.34535770    -0.14500
C2600       C  0.58232236  0.91301296  0.33692966     0.36100
C2601       C  0.59363573  0.88844491  0.31009891    -0.25900
C2602       C  0.56873535  0.86456289  0.29141742    -0.15100
C2603       C  0.53124042  0.86648492  0.30002270     0.37200
N2604       N  0.50451311  0.84281740  0.28334651    -0.89400
H2605       H  0.49109588  0.89241087  0.33313867     0.18300
H2606       H  0.62263860  0.88726902  0.30415438     0.18300
N2607       N  0.60826203  0.93667468  0.35541454    -0.88400
H2608       H  0.48400701  0.85803161  0.27189381     0.35700
H2609       H  0.49242471  0.82871468  0.30266155     0.40800
H2610       H  0.60110856  0.96265086  0.34995681     0.40400
H2611       H  0.63475188  0.93215108  0.34595057     0.35300
C2612       C  0.55004077  0.57888452  0.04376762    -0.26400
C2613       C  0.56078740  0.56782790  0.07690460    -0.14500
C2614       C  0.55721699  0.53114169  0.08233697     0.36100
C2615       C  0.55069900  0.50638389  0.05337915    -0.25900
C2616       C  0.54455754  0.51745500  0.01946628    -0.15100
C2617       C  0.54324888  0.55436616  0.01500699     0.37200
N2618       N  0.53376373  0.56701302  0.48131450    -0.89400
H2619       H  0.54905764  0.60705920  0.03975666     0.18300
H2620       H  0.54688389  0.97854929  0.05780413     0.18300
N2621       N  0.55703691  0.51944571  0.11732206    -0.88400
H2622       H  0.53571180  0.59474021  0.48198211     0.35700
H2623       H  0.50617763  0.56095035  0.47564548     0.40800
H2624       H  0.53460117  0.53155700  0.13005888     0.40400
H2625       H  0.55290223  0.99196299  0.11681126     0.35300
C2626       C  0.58311116  0.59415926  0.60175927     0.86400
C2627       C  0.60926093  0.61522295  0.57987265    -0.53900
C2628       C  0.63088438  0.63877010  0.59829960     0.09300
C2629       C  0.62528184  0.63900902  0.63887228     0.20300
C2630       C  0.60986845  0.57665502  0.62733969    -0.54600
C2631       C  0.63209780  0.59917017  0.64737323     0.09400
C2632       C  0.56125069  0.62307544  0.62444957    -0.54100
C2633       C  0.58304231  0.64720991  0.64414611     0.10000
H2634       H  0.61126258  0.61185405  0.55149723     0.14500
H2635       H  0.64323344  0.65835159  0.65433010     0.00200
H2636       H  0.61482316  0.54855271  0.62591414     0.14800
H2637       H  0.53150484  0.62522859  0.62330050     0.14600
C2638       C  0.57067435  0.68287499  0.66513212     0.29900
C2639       C  0.57227138  0.74963723  0.70112588     0.29900
C2640       C  0.58661480  0.71305437  0.64641816    -0.06300
C2641       C  0.53159047  0.69939797  0.67410860    -0.07100
C2642       C  0.58909092  0.68556937  0.70142071    -0.07000
C2643       C  0.58789419  0.74673973  0.66453378    -0.06300
C2644       C  0.53240673  0.73375905  0.69307095    -0.07100
C2645       C  0.58935191  0.71926461  0.71956278    -0.07000
C2646       C  0.58159118  0.77058882  0.63955581    -0.32400
N2647       N  0.57806095  0.75347961  0.60751548     0.14100
C2648       C  0.57895663  0.71856406  0.61190762    -0.32400
H2649       H  0.56925780  0.69836913  0.59233050     0.16100
C2650       C  0.99588624  0.74335836  0.69888346    -0.31300
N2651       N  0.97324331  0.71722789  0.68398439     0.12900
C2652       C  0.99463082  0.69063220  0.66874090    -0.31300
C2653       C  0.58401669  0.71376092  0.75421020    -0.31600
N2654       N  0.58359782  0.67882879  0.75866283     0.13400
H2655       H  0.57558746  0.73402734  0.77393395     0.16000
C2656       C  0.58494853  0.66170381  0.72654541    -0.31600
H2657       H  0.57621710  0.63466333  0.72113479     0.16000
H2658       H  0.98409195  0.66649846  0.65509009     0.16000
H2659       H  0.57261475  0.79752626  0.64513572     0.16100
H2660       H  0.98642752  0.76780505  0.71241087     0.16000
C2661       C  0.58618769  0.83710160  0.76537992     0.86400
C2662       C  0.61342698  0.81518312  0.78655756    -0.53900
C2663       C  0.63591839  0.79369753  0.76717976     0.09300
C2664       C  0.62814079  0.79491038  0.72692744     0.20300
C2665       C  0.60940431  0.85639444  0.73940090    -0.54600
C2666       C  0.63262632  0.83549671  0.71990980     0.09400
C2667       C  0.56408114  0.80833781  0.74184611    -0.54100
C2668       C  0.58570676  0.78536412  0.72169785     0.10000
H2669       H  0.61456973  0.81634818  0.81509221     0.14500
H2670       H  0.64655284  0.77683481  0.71108465     0.00200
H2671       H  0.60911857  0.88501428  0.73875587     0.14800
H2672       H  0.53476743  0.80442570  0.74197273     0.14600
C2673       C  0.72658668  0.56979123  0.70790920     0.29900
C2674       C  0.66480979  0.58535855  0.66985954     0.29900
C2675       C  0.73242791  0.58933944  0.67558702    -0.06300
C2676       C  0.70600177  0.53709092  0.69268575    -0.07100
C2677       C  0.69594431  0.58988996  0.72809174    -0.07000
C2678       C  0.70167356  0.60094950  0.65890920    -0.06300
C2679       C  0.67391044  0.54380282  0.67232926    -0.07100
C2680       C  0.66388162  0.59720031  0.70871770    -0.07000
C2681       C  0.71456123  0.62666124  0.63849885    -0.32400
N2682       N  0.75154681  0.62347687  0.63522153     0.14100
C2683       C  0.76245728  0.59928498  0.65778102    -0.32400
H2684       H  0.78975209  0.58849806  0.66061816     0.16100
C2685       C  0.65534986  0.51083701  0.66991379    -0.31300
N2686       N  0.67503459  0.98658274  0.68778808     0.12900
C2687       C  0.70509982  0.50294485  0.70231604    -0.31300
C2688       C  0.63554869  0.59329196  0.73137441    -0.31600
N2689       N  0.64853210  0.58892947  0.76420224     0.13400
H2690       H  0.60734682  0.58815494  0.72343674     0.16000
C2691       C  0.68502939  0.58407544  0.76141068    -0.31600
H2692       H  0.70211816  0.57287436  0.78134109     0.16000
H2693       H  0.72499397  0.99000709  0.71849848     0.16000
H2694       H  0.69899752  0.64905318  0.63148382     0.16100
H2695       H  0.62933358  0.00462549  0.65678274     0.16000
C2696       C  0.82226437  0.63774440  0.56515108     0.86400
C2697       C  0.84392753  0.66304970  0.59238630    -0.53900
C2698       C  0.82200885  0.68356563  0.61437706     0.09300
C2699       C  0.77963587  0.67814444  0.60484711     0.20300
C2700       C  0.79661575  0.61733894  0.58827856    -0.54600
C2701       C  0.77430125  0.63823569  0.60917008     0.09400
C2702       C  0.79703419  0.66218639  0.54442654    -0.54100
C2703       C  0.77317085  0.68225610  0.56412555     0.10000
H2704       H  0.87331018  0.66225073  0.59696433     0.14500
H2705       H  0.76114591  0.69497388  0.62186936     0.00200
H2706       H  0.79688176  0.58854250  0.58877146     0.14800
H2707       H  0.79631393  0.66128749  0.51601518     0.14600
C2708       C  0.59809625  0.63196602  0.84250562     0.86400
C2709       C  0.57664850  0.65416366  0.81595267    -0.53900
C2710       C  0.59778889  0.66390900  0.78950499     0.09300
C2711       C  0.63767062  0.65180517  0.79167747     0.20300
C2712       C  0.61445173  0.60082933  0.81882503    -0.54600
C2713       C  0.63503581  0.61171761  0.79257655     0.09400
C2714       C  0.63143349  0.65568964  0.85493962    -0.54100
C2715       C  0.65260102  0.66583651  0.82801114     0.10000
H2716       H  0.54745590  0.65973242  0.81566681     0.14500
H2717       H  0.65401763  0.65995166  0.76937743     0.00200
H2718       H  0.60871013  0.57289991  0.82148365     0.14800
H2719       H  0.63640805  0.66383286  0.88222399     0.14600
C2720       C  0.83616782  0.73534732  0.71726960     0.29900
C2721       C  0.83499307  0.70169714  0.65077460     0.29900
C2722       C  0.81934289  0.75591826  0.68808516    -0.06300
C2723       C  0.87553143  0.72710552  0.70140572    -0.07100
C2724       C  0.81940970  0.69830143  0.71347597    -0.07000
C2725       C  0.81861022  0.73871725  0.65445519    -0.06300
C2726       C  0.87478626  0.70933038  0.66693093    -0.07100
C2727       C  0.81897312  0.68113804  0.67972316    -0.07000
C2728       C  0.82545830  0.76452444  0.63180102    -0.32400
N2729       N  0.82862449  0.79670494  0.64915325     0.14100
C2730       C  0.82688514  0.79117484  0.68349386    -0.32400
H2731       H  0.83630564  0.81032561  0.70418921     0.16100
C2732       C  0.91122053  0.70385657  0.65752272    -0.31300
N2733       N  0.93393172  0.71773191  0.68406709     0.12900
C2734       C  0.91259811  0.73202749  0.71067302    -0.31300
C2735       C  0.82620333  0.64560971  0.68413520    -0.31600
N2736       N  0.82939490  0.63984601  0.71844385     0.13400
H2737       H  0.83400397  0.62625425  0.66334629     0.16000
C2738       C  0.82678396  0.67206550  0.73603058    -0.31600
H2739       H  0.83661486  0.67710854  0.76262540     0.16000
H2740       H  0.92333423  0.74460369  0.73511774     0.16000
H2741       H  0.83436318  0.75934845  0.60527198     0.16100
H2742       H  0.92059271  0.69116819  0.63301438     0.16000
C2743       C  0.80833781  0.87921001  0.60000035     0.86400
C2744       C  0.79120968  0.85331829  0.57092931    -0.53900
C2745       C  0.77279447  0.82631936  0.58344506     0.09300
C2746       C  0.77251486  0.82676830  0.62312492     0.20300
C2747       C  0.77635122  0.89111800  0.62420276    -0.54600
C2748       C  0.75715020  0.86325756  0.63583785     0.09400
C2749       C  0.83244287  0.85451706  0.62243029    -0.54100
C2750       C  0.81288048  0.82720613  0.63427068     0.10000
H2751       H  0.79437142  0.85546510  0.54293532     0.14500
H2752       H  0.75738192  0.80378497  0.63242249     0.00200
H2753       H  0.77046331  0.91874786  0.63111119     0.14800
H2754       H  0.86184318  0.85632657  0.62709282     0.14600
C2755       C  0.81527455  0.55364466  0.76366374     0.86400
C2756       C  0.79957543  0.57758547  0.79450718    -0.53900
C2757       C  0.78006182  0.60557684  0.78419230     0.09300
C2758       C  0.77656134  0.60716821  0.74469504     0.20300
C2759       C  0.78246809  0.54277723  0.73906174    -0.54600
C2760       C  0.76147134  0.57075208  0.73016066     0.09400
C2761       C  0.83734046  0.58030042  0.74260264    -0.54100
C2762       C  0.81614829  0.60833956  0.73296362     0.10000
H2763       H  0.80499486  0.57369293  0.82207164     0.14500
H2764       H  0.76000924  0.63033784  0.73693393     0.00200
H2765       H  0.77769364  0.51575845  0.72870313     0.14800
H2766       H  0.86635941  0.57860966  0.73698797     0.14600
C2767       C  0.72348334  0.86377242  0.65857955     0.29900
C2768       C  0.66387037  0.85089163  0.69824864     0.29900
C2769       C  0.73105188  0.84354752  0.69092944    -0.06300
C2770       C  0.70306253  0.89723584  0.67301857    -0.07100
C2771       C  0.69208428  0.84329964  0.63951543    -0.07000
C2772       C  0.70131557  0.83694102  0.71066746    -0.06300
C2773       C  0.67224695  0.89157844  0.69391529    -0.07100
C2774       C  0.66132497  0.83688593  0.65956916    -0.07000
C2775       C  0.71550475  0.82681608  0.74193096    -0.32400
N2776       N  0.75261230  0.82131470  0.74005549     0.14100
C2777       C  0.76221816  0.83555866  0.71004211    -0.32400
H2778       H  0.78937358  0.84402575  0.70431667     0.16100
C2779       C  0.65568473  0.92523845  0.69933208    -0.31300
N2780       N  0.67453899  0.94917553  0.68133571     0.12900
C2781       C  0.70279900  0.93204067  0.66512100    -0.31300
C2782       C  0.63168930  0.83876425  0.63658402    -0.31600
N2783       N  0.64288306  0.84226954  0.60350294     0.13400
H2784       H  0.60376546  0.84364646  0.64439797     0.16000
C2785       C  0.67934757  0.84767380  0.60597996    -0.31600
H2786       H  0.69507698  0.85849879  0.58565510     0.16000
H2787       H  0.72198991  0.94505776  0.64929356     0.16000
H2788       H  0.70039314  0.83295796  0.76529384     0.16100
H2789       H  0.63198849  0.93209247  0.71497205     0.16000
C2790       C  0.58768146  0.80170759  0.52465924     0.86400
C2791       C  0.56804389  0.77886365  0.55088884    -0.53900
C2792       C  0.59067535  0.76823909  0.57669363     0.09300
C2793       C  0.63030282  0.77999156  0.57448017     0.20300
C2794       C  0.60567038  0.83204544  0.54886945    -0.54600
C2795       C  0.62763870  0.82022817  0.57474086     0.09400
C2796       C  0.62061092  0.77790108  0.51114890    -0.54100
C2797       C  0.64324308  0.76672103  0.53768463     0.10000
H2798       H  0.53900264  0.77331014  0.55175766     0.14500
H2799       H  0.64775275  0.77107752  0.59649109     0.00200
H2800       H  0.59993707  0.86015357  0.54688154     0.14800
H2801       H  0.62481918  0.77036370  0.48366012     0.14600
C2802       C  0.83056703  0.79802063  0.80450010     0.86400
C2803       C  0.84857554  0.77309621  0.77570411    -0.53900
C2804       C  0.82472958  0.75501026  0.75316134     0.09300
C2805       C  0.78320713  0.76198013  0.76389486     0.20300
C2806       C  0.80247447  0.82133996  0.78528597    -0.54600
C2807       C  0.77771974  0.80324103  0.76375702     0.09400
C2808       C  0.80541664  0.77301374  0.82455550    -0.54100
C2809       C  0.77997997  0.75388574  0.80397693     0.10000
H2810       H  0.87803375  0.77119524  0.77256974     0.14500
H2811       H  0.76317984  0.74705164  0.74611730     0.00200
H2812       H  0.80235270  0.85022190  0.78830823     0.14800
H2813       H  0.80602299  0.77151141  0.85262609     0.14600
C2814       C  0.67823997  0.74341049  0.53584995     0.29900
C2815       C  0.74013207  0.70293214  0.54816405     0.29900
C2816       C  0.67263158  0.70903433  0.55337786    -0.06300
C2817       C  0.69961733  0.73087146  0.50279279    -0.07100
C2818       C  0.70899907  0.76162788  0.55788035    -0.07000
C2819       C  0.70313676  0.68826112  0.55887179    -0.06300
C2820       C  0.73179174  0.71013058  0.50840587    -0.07100
C2821       C  0.74033632  0.74103537  0.56436268    -0.07000
C2822       C  0.69026397  0.65755499  0.57167551    -0.32400
N2823       N  0.65427215  0.66217039  0.58009682     0.14100
C2824       C  0.64284764  0.69181365  0.56507871    -0.32400
H2825       H  0.61495295  0.69882615  0.55945751     0.16100
C2826       C  0.74916665  0.70724753  0.97607333    -0.31300
N2827       N  0.72935465  0.72586335  0.95256412     0.12900
C2828       C  0.69942410  0.74017924  0.96881482    -0.31300
C2829       C  0.76939100  0.76410361  0.56519938    -0.31600
N2830       N  0.75737458  0.79754256  0.56203676     0.13400
H2831       H  0.79767700  0.75626299  0.56224831     0.16000
C2832       C  0.72103147  0.79573958  0.55538806    -0.31600
H2833       H  0.70509031  0.81692058  0.54491028     0.16000
H2834       H  0.67858602  0.75560824  0.95611215     0.16000
H2835       H  0.70593379  0.63342947  0.57399982     0.16100
H2836       H  0.77400799  0.69250770  0.96981941     0.16000
C2837       C  0.68711743  0.68931955  0.82940172     0.29900
C2838       C  0.74813130  0.73078734  0.81856050     0.29900
C2839       C  0.68101460  0.72089764  0.80778564    -0.06300
C2840       C  0.70623403  0.70595919  0.86282802    -0.07100
C2841       C  0.71924790  0.67047621  0.81139400    -0.07000
C2842       C  0.71118355  0.74144371  0.80229618    -0.06300
C2843       C  0.73758146  0.72751475  0.85829546    -0.07100
C2844       C  0.75040239  0.69112259  0.80587748    -0.07000
C2845       C  0.69749491  0.77226462  0.79082849    -0.32400
N2846       N  0.66075803  0.76912893  0.78352119     0.14100
C2847       C  0.65039612  0.73928234  0.79807969    -0.32400
H2848       H  0.62320858  0.73383701  0.80636958     0.16100
C2849       C  0.75125178  0.73624113  0.89250461    -0.31300
N2850       N  0.72998972  0.71984857  0.91566309     0.12900
C2851       C  0.70297648  0.70159024  0.89776287    -0.31300
C2852       C  0.77935715  0.66752391  0.80596003    -0.31600
N2853       N  0.76690826  0.63383835  0.80753803     0.13400
H2854       H  0.80790277  0.67472859  0.80906293     0.16000
C2855       C  0.73078601  0.63620499  0.81380474    -0.31600
H2856       H  0.71435292  0.61472687  0.82210005     0.16000
H2857       H  0.68273480  0.68631269  0.91018455     0.16000
H2858       H  0.71226272  0.79622845  0.79760150     0.16100
H2859       H  0.77459266  0.75296108  0.90006576     0.16000
O2860       O  0.98795453  0.50008735  0.49971910    -0.80200
O2861       O  0.90894955  0.50888180  0.88651601    -0.80300
O2862       O  0.52209122  0.50942499  0.92096798    -0.80300
O2863       O  0.88554518  0.50996714  0.95385494    -0.80200
O2864       O  0.97896758  0.52680015  0.88592486    -0.80300
O2865       O  0.91823658  0.50661092  0.50187419    -0.80300
O2866       O  0.87085213  0.46746794  0.89347228    -0.79700
O2867       O  0.53219832  0.97044243  0.97296237    -0.80300
C2868       C  0.52128542  0.49442580  0.99577317     1.09400
C2869       C  0.88132150  0.49186584  0.87535665     1.09300
C2870       C  0.50868273  0.53289246  0.90269174     1.09500
C2871       C  0.89540760  0.52304941  0.98384202     1.09300
O2872       O  0.90967382  0.93032354  0.48288006    -0.80200
O2873       O  0.99900908  0.95188454  0.86825177    -0.80300
O2874       O  0.49093954  0.91117851  0.93179946    -0.80300
O2875       O  0.91205471  0.91189272  0.91865577    -0.80200
O2876       O  0.92753262  0.93311325  0.86894907    -0.80300
O2877       O  0.98474714  0.92302000  0.48798239    -0.80300
O2878       O  0.85669851  0.94476148  0.96086485    -0.80200
O2879       O  0.54725814  0.94327465  0.90339157    -0.80300
Co2880     Co  0.95051783  0.96558826  0.98921454     1.51500
Co2881     Co  0.95322265  0.98046875  0.88150904     1.51700
Co2882     Co  0.50404339  0.96072560  0.92613452     1.51600
Co2883     Co  0.90017397  0.96076064  0.93783851     1.51500
O2884       O  0.95302595  0.97648896  0.93574478    -1.42200
C2885       C  0.87561363  0.93639686  0.98749620     1.09400
C2886       C  0.53098496  0.93853984  0.87358955     1.09500
C2887       C  0.49412599  0.90178238  0.96244806     1.09400
C2888       C  0.91623666  0.90738435  0.88588112     1.09400
C2889       C  0.86406104  0.82086614  0.86225690    -0.26400
C2890       C  0.85935410  0.82183673  0.82549193    -0.14500
C2891       C  0.88102017  0.84720026  0.80885656     0.36100
C2892       C  0.90182791  0.87261510  0.82915195    -0.25900
C2893       C  0.90247540  0.87419640  0.86594809    -0.15100
C2894       C  0.88523478  0.84653286  0.88238676     0.37200
N2895       N  0.88830330  0.84471317  0.91967874    -0.89400
H2896       H  0.85080722  0.80088739  0.87627015     0.18300
H2897       H  0.91615453  0.89260501  0.81569996     0.18300
N2898       N  0.88229019  0.84900550  0.77146043    -0.88400
H2899       H  0.89985179  0.82007502  0.92470718     0.35700
H2900       H  0.86182656  0.84584854  0.92981091     0.40800
H2901       H  0.85640773  0.85408178  0.76070676     0.40400
H2902       H  0.89303202  0.82548731  0.75972000     0.35300
C2903       C  0.55299626  0.86931787  0.46225424    -0.26400
C2904       C  0.51524487  0.86934848  0.46894918    -0.14500
C2905       C  0.50008791  0.84051127  0.48502758     0.36100
C2906       C  0.52370940  0.81457163  0.49765724    -0.25900
C2907       C  0.56248228  0.81812575  0.49703881    -0.15100
C2908       C  0.57680500  0.84395790  0.47592163     0.37200
N2909       N  0.61579760  0.84648120  0.47125285    -0.89400
H2910       H  0.56439532  0.89082507  0.44862239     0.18300
H2911       H  0.51083358  0.79301876  0.50965999     0.18300
N2912       N  0.46113254  0.83684320  0.98932526    -0.88400
H2913       H  0.62199999  0.86865065  0.45755378     0.35700
H2914       H  0.62370900  0.82423359  0.45521399     0.40800
H2915       H  0.94634111  0.85704044  0.97796936     0.40400
H2916       H  0.95612198  0.83934311  0.01624290     0.35300
C2917       C  0.83019410  0.48851267  0.83123187    -0.26400
C2918       C  0.86677488  0.49665255  0.83979792    -0.14500
C2919       C  0.88907949  0.51078466  0.81440079     0.36100
C2920       C  0.87278622  0.52322958  0.78416972    -0.25900
C2921       C  0.83448100  0.52250297  0.77951153    -0.15100
C2922       C  0.81373799  0.50071643  0.80080167     0.37200
N2923       N  0.77502460  0.49520623  0.79418439    -0.89400
H2924       H  0.81371649  0.47521656  0.84957644     0.18300
H2925       H  0.89001377  0.53685007  0.76686484     0.18300
N2926       N  0.92809367  0.51392297  0.81983810    -0.88400
H2927       H  0.76322248  0.48254950  0.81463127     0.35700
H2928       H  0.77238800  0.47735601  0.77201488     0.40800
H2929       H  0.93514454  0.54073787  0.81919682     0.40400
H2930       H  0.94089093  0.49971415  0.79893144     0.35300
C2931       C  0.86516902  0.91003301  0.58035260    -0.26400
C2932       C  0.82674559  0.90882101  0.58191278    -0.14500
C2933       C  0.80574488  0.92758870  0.55751541     0.36100
C2934       C  0.82240133  0.93839936  0.52739261    -0.25900
C2935       C  0.85992996  0.93227615  0.52226550    -0.15100
C2936       C  0.88211988  0.92143415  0.55065383     0.37200
N2937       N  0.92157873  0.92011598  0.54863147    -0.89400
H2938       H  0.88230171  0.89952761  0.60056086     0.18300
H2939       H  0.80544812  0.94945152  0.00710810     0.18300
N2940       N  0.76680737  0.93179843  0.56113699    -0.88400
H2941       H  0.93343922  0.90953406  0.57081067     0.35700
H2942       H  0.93088860  0.94634678  0.54880057     0.40800
H2943       H  0.76067505  0.95895439  0.56134708     0.40400
H2944       H  0.75361389  0.91918003  0.03918424     0.35300
C2945       C  0.56841416  0.56457454  0.90422017    -0.26400
C2946       C  0.53007601  0.56574585  0.89855484    -0.14500
C2947       C  0.51441641  0.59685666  0.88585072     0.36100
C2948       C  0.53740205  0.62266761  0.87353069    -0.25900
C2949       C  0.57568780  0.61699209  0.87156124    -0.15100
C2950       C  0.59140278  0.59026118  0.89142226     0.37200
N2951       N  0.63070607  0.58692596  0.89496958    -0.89400
H2952       H  0.58084029  0.04203451  0.91608966     0.18300
H2953       H  0.52445710  0.64555120  0.86306785     0.18300
N2954       N  0.97547461  0.60270268  0.88422121    -0.88400
H2955       H  0.63777004  0.56445181  0.90821341     0.35700
H2956       H  0.64010129  0.60886915  0.91095423     0.40800
H2957       H  0.96481865  0.59931080  0.90894905     0.40400
H2958       H  0.96350329  0.58419165  0.86577446     0.35300
C2959       C  0.88162159  0.60714513  0.54279377    -0.26400
C2960       C  0.84315106  0.61120493  0.54055975    -0.14500
C2961       C  0.82308700  0.58816559  0.51596408     0.36100
C2962       C  0.84117537  0.56142830  0.49556358    -0.25900
C2963       C  0.87896889  0.55611372  0.49966646    -0.15100
C2964       C  0.89963112  0.57975381  0.52278765     0.37200
N2965       N  0.93885125  0.57552844  0.52616203    -0.89400
H2966       H  0.89805513  0.62434224  0.56059717     0.18300
H2967       H  0.82509833  0.54325473  0.47806879     0.18300
N2968       N  0.78383924  0.59088725  0.51258629    -0.88400
H2969       H  0.94997652  0.59437483  0.54487403     0.35700
H2970       H  0.95004048  0.58059410  0.00216028     0.40800
H2971       H  0.77710581  0.59527746  0.48648329     0.40400
H2972       H  0.77242990  0.56657471  0.51819762     0.35300
C2973       C  0.51990272  0.89158904  0.82641802    -0.26400
C2974       C  0.54516507  0.91427411  0.84532788    -0.14500
C2975       C  0.58230280  0.91299081  0.83693101     0.36100
C2976       C  0.59362494  0.88841216  0.81011445    -0.25900
C2977       C  0.56872198  0.86456390  0.79139529    -0.15100
C2978       C  0.53121170  0.86653764  0.79993925     0.37200
N2979       N  0.50446118  0.84296891  0.78315174    -0.89400
H2980       H  0.49105532  0.89247329  0.83303682     0.18300
H2981       H  0.62263466  0.88721126  0.80419973     0.18300
N2982       N  0.60824361  0.93664454  0.85542462    -0.88400
H2983       H  0.48404221  0.85826213  0.77166964     0.35700
H2984       H  0.49226065  0.82886557  0.80240346     0.40800
H2985       H  0.60111458  0.96262032  0.84994411     0.40400
H2986       H  0.63473986  0.93209871  0.84598430     0.35300
C2987       C  0.54999179  0.57891955  0.54378356    -0.26400
C2988       C  0.56077455  0.56785039  0.57690492    -0.14500
C2989       C  0.55724243  0.53115927  0.58232241     0.36100
C2990       C  0.55075502  0.50640732  0.55335670    -0.25900
C2991       C  0.54455993  0.51749252  0.51945829    -0.15100
C2992       C  0.54319930  0.55440786  0.51501811     0.37200
N2993       N  0.53386134  0.56696365  0.98128911    -0.89400
H2994       H  0.54898907  0.60709743  0.53978685     0.18300
H2995       H  0.54697699  0.97856569  0.55777022     0.18300
N2996       N  0.55703665  0.51945270  0.61730217    -0.88400
H2997       H  0.53581002  0.59469067  0.98195409     0.35700
H2998       H  0.50628122  0.56090136  0.97558702     0.40800
H2999       H  0.53450532  0.53145249  0.62997736     0.40400
H3000       H  0.55304647  0.99194833  0.61677585     0.35300
loop_ 
_geom_bond_atom_site_label_1 
_geom_bond_atom_site_label_2 
_geom_bond_distance 
_geom_bond_site_symmetry_2 
_ccdc_geom_bond_type 
C1            C2   1.541       .  S
C1            C7   1.567       .  S
C1            C5   1.543       .  S
C1          C363   1.542       .  S
C2            H9   1.086       .  S
C2            C3   1.338       .  D
C3            C4   1.567       .  S
C3          N198   1.452       .  S
C4            C8   1.580       .  S
C4            C6   1.576       .  S
C4           H10   1.109       .  S
C5           H11   1.071       .  S
C5            C6   1.357       .  D
C6           C49   1.560       .  S
C7           H12   1.084       .  S
C7            C8   1.378       .  D
C8           C13   1.582       .  S
C13          C15   1.511       .  S
C13          C17   1.522       .  S
C13          C16   1.584       .  S
C14          C43   1.581       .  S
C14          C18   1.517       .  S
C14          C20   1.511       .  S
C14          C19   1.586       .  S
C15          C23   1.371       .  A
C15          C18   1.401       .  A
C16          C19   1.436       .  A
C16        C1527   1.392   1_455  A
C17          C31   1.373       .  A
C17          C20   1.401       .  A
C18          C21   1.372       .  A
C19        C1525   1.393   1_455  A
C20          C28   1.373       .  A
C21          N22   1.344       .  A
C21          H34   1.072       .  S
N22         C167   1.424       .  S
N22          C23   1.338       .  A
C23          H24   1.081       .  S
C25        C1519   1.393       .  A
C25          N26   1.369       .  A
C25          H35   1.081       .  S
N26          C27   1.370       .  A
N26         N108   1.430       .  S
C27        C1516   1.392       .  A
C27          H33   1.082       .  S
C28          N29   1.339       .  A
C28          H30   1.081       .  S
N29          C85   1.427       .  S
N29          C31   1.345       .  A
C31          H32   1.073       .  S
C36          C37   1.539       .  S
C36          C42   1.568       .  S
C36          C40   1.541       .  S
C36         C352   1.528       .  S
C37          H44   1.087       .  S
C37          C38   1.344       .  D
C38          C39   1.560       .  S
C38         N221   1.453       .  S
C39          C43   1.591       .  S
C39          C41   1.581       .  S
C39          H45   1.110       .  S
C40          H46   1.080       .  S
C40          C41   1.351       .  D
C41         C143   1.559       .  S
C42          H47   1.077       .  S
C42          C43   1.373       .  D
C48         C135   1.509       .  S
C48          C50   1.502       .  S
C48          C52   1.535       .  S
C48          C51   1.516       .  S
C49          C53   1.545       .  S
C49          C55   1.519       .  S
C49          C54   1.608       .  S
C50          C58   1.368       .  A
C50          C53   1.360       .  A
C51          C62   1.364       .  A
C51          C54   1.419       .  A
C52          C66   1.375       .  A
C52          C55   1.403       .  A
C53          C56   1.377       .  A
C54          C60   1.412       .  A
C55          C63   1.376       .  A
C56          N57   1.358       .  A
C56          H69   1.061       .  S
N57          C76   1.452       .  S
N57          C58   1.351       .  A
C58          H59   1.077       .  S
C60         N811   1.370   1_545  A
C60         H820   1.079       .  S
N61         C810   1.370       .  A
N61         C812   1.346       .  A
N61         N155   1.413       .  S
C62         N811   1.346   1_545  A
C62         H818   1.078   1_545  S
C63          N64   1.350       .  A
C63          H65   1.077       .  S
N64          C88   1.427       .  S
N64          C66   1.345       .  A
C66          H67   1.080       .  S
H68         C812   1.078       .  S
H70         C810   1.079       .  S
C71          C72   1.560       .  S
C71          C77   1.543       .  S
C71          C75   1.545       .  S
C71         C335   1.532       .  S
C72          H79   1.079       .  S
C72          C73   1.367       .  D
C73          C74   1.586       .  S
C73          C96   1.567       .  S
C74          C78   1.586       .  S
C74          C76   1.538       .  S
C74          H80   1.110       .  S
C75          H81   1.086       .  S
C75          C76   1.359       .  D
C77          H82   1.083       .  S
C77          C78   1.354       .  D
C78         C190   1.565       .  S
C83          C84   1.555       .  S
C83          C89   1.554       .  S
C83          C87   1.553       .  S
C83         C324   1.533       .  S
C84          H91   1.081       .  S
C84          C85   1.356       .  D
C85          C86   1.520       .  S
C86          C90   1.536       .  S
C86          C88   1.517       .  S
C86          H92   1.112       .  S
C87          H93   1.086       .  S
C87          C88   1.353       .  D
C89          H94   1.076       .  S
C89          C90   1.376       .  D
C90         C212   1.536       .  S
C95         C179   1.573       .  S
C95          C97   1.519       .  S
C95          C99   1.521       .  S
C95          C98   1.588       .  S
C96         C100   1.512       .  S
C96         C102   1.523       .  S
C96         C101   1.579       .  S
C97         C105   1.382       .  A
C97         C100   1.395       .  A
C98         C109   1.395       .  A
C98         C101   1.432       .  A
C99         C113   1.379       .  A
C99         C102   1.399       .  A
C100        C103   1.375       .  A
C101        C107   1.391       .  A
C102        C110   1.384       .  A
C103        N104   1.343       .  A
C103        H116   1.075       .  S
N104        C125   1.430       .  S
N104        C105   1.346       .  A
C105        H106   1.081       .  S
C107        N108   1.368       .  A
C107        H117   1.081       .  S
N108        C109   1.370       .  A
C109        H115   1.081       .  S
C110        N111   1.346       .  A
C110        H112   1.080       .  S
N111        C137   1.436       .  S
N111        C113   1.348       .  A
C113        H114   1.073       .  S
C118        C119   1.545       .  S
C118        C124   1.562       .  S
C118        C122   1.547       .  S
C118        C307   1.520       .  S
C119        H126   1.087       .  S
C119        C120   1.343       .  D
C120        C121   1.514       .  S
C120        N205   1.419       .  S
C121        C125   1.518       .  S
C121        C123   1.532       .  S
C121        H127   1.112       .  S
C122        H128   1.077       .  S
C122        C123   1.370       .  D
C123        C142   1.517       .  S
C124        H129   1.081       .  S
C124        C125   1.363       .  D
C130        C131   1.548       .  S
C130        C136   1.567       .  S
C130        C134   1.539       .  S
C130        C296   1.519       .  S
C131        H138   1.087       .  S
C131        C132   1.346       .  D
C132        C133   1.516       .  S
C132        N228   1.426       .  S
C133        C137   1.519       .  S
C133        C135   1.540       .  S
C133        H139   1.112       .  S
C134        H140   1.078       .  S
C134        C135   1.357       .  D
C136        H141   1.082       .  S
C136        C137   1.372       .  D
C142        C144   1.517       .  S
C142        C146   1.522       .  S
C142        C145   1.534       .  S
C143        C147   1.535       .  S
C143        C149   1.533       .  S
C143        C148   1.585       .  S
C144        C152   1.378       .  A
C144        C147   1.366       .  A
C145        C156   1.367       .  A
C145        C148   1.417       .  A
C146        C160   1.373       .  A
C146        C149   1.402       .  A
C147        C150   1.369       .  A
C148        C154   1.405       .  A
C149        C157   1.379       .  A
C150        N151   1.367       .  A
C150        H163   1.069       .  S
N151        C182   1.470       .  S
N151        C152   1.354       .  A
C152        H153   1.071       .  S
C154        N155   1.369       .  A
C154        H164   1.079       .  S
N155        C156   1.350       .  A
C156        H162   1.077       .  S
C157        N158   1.352       .  A
C157        H159   1.076       .  S
N158        C170   1.430       .  S
N158        C160   1.342       .  A
C160        H161   1.079       .  S
C165        C166   1.556       .  S
C165        C171   1.567       .  S
C165        C169   1.553       .  S
C165        C282   1.543   1_554  S
C166        H173   1.079       .  S
C166        C167   1.351       .  D
C167        C168   1.515       .  S
C168        C172   1.540       .  S
C168        C170   1.518       .  S
C168        H174   1.112       .  S
C169        H175   1.086       .  S
C169        C170   1.355       .  D
C171        H176   1.081   1_554  S
C171        C172   1.379       .  D
C172        C189   1.543       .  S
C177        C178   1.548       .  S
C177        C183   1.567       .  S
C177        C181   1.551       .  S
C177        C265   1.552       .  S
C178        H185   1.082       .  S
C178        C179   1.357       .  D
C179        C180   1.589       .  S
C180        C184   1.590       .  S
C180        C182   1.567       .  S
C180        H186   1.110       .  S
C181        H187   1.086       .  S
C181        C182   1.357       .  D
C183        H188   1.077       .  S
C183        C184   1.372       .  D
C184        C213   1.587       .  S
C189        C191   1.517       .  S
C189        C193   1.519       .  S
C189        C192   1.541       .  S
C190        C194   1.532       .  S
C190        C196   1.521       .  S
C190        C195   1.584       .  S
C191        C199   1.366       .  A
C191        C194   1.376       .  A
C192        C195   1.425       .  A
C192        C578   1.369   1_554  A
C193        C207   1.370       .  A
C193        C196   1.403       .  A
C194        C197   1.377       .  A
C195        C576   1.397   1_554  A
C196        C204   1.369       .  A
C197        N198   1.362       .  A
C197        H210   1.079       .  S
N198        C199   1.352       .  A
C199        H200   1.068       .  S
C201        C570   1.397       .  A
C201        N202   1.369       .  A
C201        H211   1.080       .  S
N202        C203   1.356       .  A
N202        N225   1.412       .  S
C203        C567   1.369       .  A
C203        H209   1.080       .  S
C204        N205   1.344       .  A
C204        H206   1.075       .  S
N205        C207   1.341       .  A
C207        H208   1.079       .  S
C212        C214   1.509       .  S
C212        C216   1.517       .  S
C212        C215   1.533       .  S
C213        C217   1.531       .  S
C213        C219   1.539       .  S
C213        C218   1.587       .  S
C214        C222   1.367       .  A
C214        C217   1.374       .  A
C215        C226   1.364       .  A
C215        C218   1.424       .  A
C216        C230   1.364       .  A
C216        C219   1.406       .  A
C217        C220   1.359       .  A
C218        C224   1.404       .  A
C219        C227   1.375       .  A
C220        N221   1.362       .  A
C220        H233   1.065       .  S
N221        C222   1.349       .  A
C222        H223   1.070       .  S
C224        N225   1.370       .  A
C224        H234   1.080       .  S
N225        C226   1.346       .  A
C226        H232   1.076       .  S
C227        N228   1.355       .  A
C227        H229   1.076       .  S
N228        C230   1.342       .  A
C230        H231   1.078       .  S
O235       C2118   1.241   1_545  A
O235      Co1380   1.901   1_545  S
O236        C244   1.244   1_545  A
O236      Co1006   1.935   1_545  S
O237        C245   1.256       .  A
O237      Co1007   1.976   1_545  S
O238        C246   1.258       .  A
O238      Co1008   1.984   1_545  S
O239       C1745   1.256       .  A
O239      Co1006   1.979   1_545  S
O240        C621   1.256   1_554  A
O240      Co1380   1.975   1_544  S
O241        C244   1.256       .  A
O241      Co1008   2.012       .  S
O242        C993   1.277       .  A
O242       Co257   2.050       .  S
C243       O2110   1.241   1_465  A
C243        O992   1.277       .  A
C243        C741   1.464   1_565  S
C244        C293   1.469       .  S
C245       O1739   1.256   1_455  A
C245        C321   1.485       .  S
C246        O615   1.256       .  A
C246        C713   1.475       .  S
O247        C635   1.271       .  A
O247       Co630   1.997       .  S
O248       C1761   1.282       .  A
O248       Co256   2.032       .  S
O249        C262   1.250       .  A
O249       Co257   1.957   1_655  S
O250        C263   1.263       .  A
O250       Co258   1.981       .  S
O251        C263   1.278       .  A
O251       Co256   2.038       .  S
O252       C2137   1.268       .  A
O252       Co630   2.023       .  S
O253        C260   1.272       .  A
O253       Co258   1.946       .  S
O254        C261   1.272       .  A
O254       Co257   1.905       .  S
Co255      O1360   1.902       .  S
Co255      O1365   1.975       .  S
Co255       O622   1.996       .  S
Co255       O627   2.024       .  S
Co255       O259   2.116       .  S
Co256       O986   1.935       .  S
Co256       O989   1.979       .  S
Co256       O259   2.088       .  S
Co257       O987   1.976       .  S
Co257      O1759   1.980   1_455  S
Co258       O988   1.984       .  S
Co258       O991   2.012       .  S
Co258       O259   2.019       .  S
O259      Co1757   1.980       .  S
C260        O622   1.271       .  A
C260        C685   1.476       .  S
C261       O1748   1.282   1_455  A
C261        C349   1.464       .  S
C262       O2127   1.268       .  A
C262        C654   1.473   1_655  S
C263        C268   1.497       .  S
C264        C265   1.413       .  A
C264        C269   1.410       .  A
C264        H271   1.077       .  S
C265        C266   1.434       .  A
C266        C267   1.400       .  A
C266        N273   1.437       .  S
C267        C268   1.402       .  A
C267        H272   1.084       .  S
C268        C269   1.412       .  A
C269        N270   1.432       .  S
N270        H274   1.046       .  S
N270        H275   1.045       .  S
N273        H276   1.041       .  S
N273        H277   1.042       .  S
C278        C279   1.402       .  A
C278        C283   1.407       .  A
C278        H285   1.084       .  S
C279        C280   1.407       .  A
C279        C637   1.473   1_455  S
C280        C281   1.403       .  A
C280        N662   1.439   1_455  S
C281        C282   1.418       .  A
C281        H286   1.075   1_556  S
C282        C283   1.417       .  A
C283        N284   1.438       .  S
N284        H288   1.046       .  S
N284        H289   1.045       .  S
N287        C655   1.439   1_655  S
N287       H1790   1.044       .  S
N287       H1791   1.046       .  S
H290       N1787   1.044       .  S
H291       N1787   1.046       .  S
C292        C293   1.393       .  A
C292        C297   1.401   1_565  A
C292        H299   1.084       .  S
C293        C294   1.413   1_565  A
C294        C295   1.396       .  A
C294        N301   1.433       .  S
C295        C296   1.400       .  A
C295        H300   1.079       .  S
C296        C297   1.427       .  A
C297        N298   1.438   1_545  S
N298        H302   1.046       .  S
N298        H303   1.045       .  S
N301        H304   1.046       .  S
N301        H305   1.046   1_545  S
C306        C307   1.401       .  A
C306        C311   1.399       .  A
C306        H313   1.077       .  S
C307        C308   1.417       .  A
C308        C309   1.400       .  A
C308        N315   1.433       .  S
C309        C310   1.399       .  A
C309        H689   1.084       .  S
C310        C311   1.419       .  A
C310        C635   1.477   1_554  S
C311        N312   1.439       .  S
N312        H316   1.045       .  S
N312        H317   1.046       .  S
H314        C684   1.084       .  S
N315        H318   1.046       .  S
N315        H694   1.046       .  S
H319        N690   1.046       .  S
C320        C321   1.407       .  A
C320        C325   1.403       .  A
C320       H1077   1.083       .  S
C321        C322   1.413       .  A
C322        C323   1.399       .  A
C322       N1829   1.433   1_455  S
C323        C324   1.410       .  A
C323        H328   1.078       .  S
C324        C325   1.415       .  A
C325        N326   1.438       .  S
N326        H330   1.046       .  S
N326        H331   1.045       .  S
H327       C1070   1.083       .  S
N329       C1822   1.433       .  S
N329        H332   1.046       .  S
N329        H333   1.043       .  S
C334        C335   1.408       .  A
C334        C339   1.407       .  A
C334        H341   1.077       .  S
C335        C336   1.422       .  A
C336        C337   1.399   1_554  A
C336        N343   1.434       .  S
C337        C338   1.395       .  A
C337        H342   1.084       .  S
C338        C339   1.413   1_556  A
C338        C621   1.475       .  S
C339        N340   1.438       .  S
N340        H344   1.046       .  S
N340        H720   1.045       .  S
N343        H346   1.046   1_554  S
N343        H347   1.046       .  S
H345        N715   1.045       .  S
C348        C349   1.408       .  A
C348        C353   1.399       .  A
C348        H355   1.085   1_455  S
C349        C350   1.395       .  A
C350        C351   1.398       .  A
C350        N357   1.438       .  S
C351        C352   1.422       .  A
C351        H356   1.084       .  S
C352        C353   1.410       .  A
C353        N354   1.429       .  S
N354        H358   1.046   1_455  S
N354        H359   1.046   1_455  S
N357        H360   1.046       .  S
N357        H361   1.046       .  S
C362        C363   1.407       .  A
C362        C367   1.401       .  A
C362        H369   1.084       .  S
C363        C364   1.419       .  A
C364        C365   1.410       .  A
C364        N371   1.437       .  S
C365        C366   1.402       .  A
C365       H1120   1.084   1_545  S
C366        C367   1.414       .  A
C366        C618   1.464   1_544  S
C367        N743   1.438   1_554  S
N368        C742   1.438       .  S
N368        H372   1.046       .  S
N368        H373   1.044       .  S
H370       C1115   1.084       .  S
N371        H374   1.045       .  S
N371       H1125   1.046   1_545  S
H375       N1121   1.046       .  S
C376        C377   1.541       .  S
C376        C382   1.567       .  S
C376        C380   1.543       .  S
C376        C738   1.542       .  S
C377        H384   1.086       .  S
C377        C378   1.338       .  D
C378        C379   1.567       .  S
C378        N573   1.452       .  S
C379        C383   1.580       .  S
C379        C381   1.576       .  S
C379        H385   1.109       .  S
C380        H386   1.071       .  S
C380        C381   1.357       .  D
C381        C424   1.560       .  S
C382        H387   1.084       .  S
C382        C383   1.378       .  D
C383        C388   1.582       .  S
C388        C390   1.511       .  S
C388        C392   1.522       .  S
C388        C391   1.584       .  S
C389        C418   1.581       .  S
C389        C393   1.517       .  S
C389        C395   1.510       .  S
C389        C394   1.586       .  S
C390        C398   1.371       .  A
C390        C393   1.401       .  A
C391       C1902   1.392   1_455  A
C391        C394   1.436       .  A
C392        C406   1.373       .  A
C392        C395   1.401       .  A
C393        C396   1.372       .  A
C394       C1900   1.393   1_455  A
C395        C403   1.372       .  A
C396        N397   1.344       .  A
C396        H409   1.073       .  S
N397        C542   1.424       .  S
N397        C398   1.338       .  A
C398        H399   1.081       .  S
C400       C1894   1.393       .  A
C400        N401   1.369       .  A
C400        H410   1.081       .  S
N401        C402   1.370       .  A
N401        N483   1.430       .  S
C402       C1891   1.392       .  A
C402        H408   1.082       .  S
C403        N404   1.339       .  A
C403        H405   1.081       .  S
N404        C460   1.427       .  S
N404        C406   1.345       .  A
C406        H407   1.073       .  S
C411        C412   1.539       .  S
C411        C417   1.568       .  S
C411        C415   1.541       .  S
C411        C727   1.528       .  S
C412        H419   1.087       .  S
C412        C413   1.344       .  D
C413        C414   1.560       .  S
C413        N596   1.453       .  S
C414        C418   1.591       .  S
C414        C416   1.581       .  S
C414        H420   1.110       .  S
C415        H421   1.080       .  S
C415        C416   1.351       .  D
C416        C518   1.559       .  S
C417        H422   1.077       .  S
C417        C418   1.373       .  D
C423        C510   1.509       .  S
C423        C425   1.503       .  S
C423        C427   1.535       .  S
C423        C426   1.516       .  S
C424        C428   1.545       .  S
C424        C430   1.519       .  S
C424        C429   1.608       .  S
C425        C433   1.368       .  A
C425        C428   1.360       .  A
C426        C437   1.364       .  A
C426        C429   1.419       .  A
C427        C441   1.375       .  A
C427        C430   1.403       .  A
C428        C431   1.377       .  A
C429        C435   1.412       .  A
C430        C438   1.376       .  A
C431        N432   1.358       .  A
C431        H444   1.061       .  S
N432        C451   1.452       .  S
N432        C433   1.351       .  A
C433        H434   1.077       .  S
C435       N1186   1.369   1_545  A
C435       H1195   1.079       .  S
N436       C1185   1.369       .  A
N436       C1187   1.346       .  A
N436        N530   1.413       .  S
C437       N1186   1.346   1_545  A
C437       H1193   1.078   1_545  S
C438        N439   1.350       .  A
C438        H440   1.077       .  S
N439        C463   1.427       .  S
N439        C441   1.344       .  A
C441        H442   1.080       .  S
H443       C1187   1.078       .  S
H445       C1185   1.079       .  S
C446        C447   1.560       .  S
C446        C452   1.543       .  S
C446        C450   1.544       .  S
C446        C710   1.532       .  S
C447        H454   1.079       .  S
C447        C448   1.367       .  D
C448        C449   1.586       .  S
C448        C471   1.567       .  S
C449        C453   1.586       .  S
C449        C451   1.538       .  S
C449        H455   1.110       .  S
C450        H456   1.086       .  S
C450        C451   1.359       .  D
C452        H457   1.083       .  S
C452        C453   1.353       .  D
C453        C565   1.565       .  S
C458        C459   1.555       .  S
C458        C464   1.554       .  S
C458        C462   1.553       .  S
C458        C699   1.533       .  S
C459        H466   1.081       .  S
C459        C460   1.356       .  D
C460        C461   1.520       .  S
C461        C465   1.536       .  S
C461        C463   1.517       .  S
C461        H467   1.112       .  S
C462        H468   1.086       .  S
C462        C463   1.353       .  D
C464        H469   1.076       .  S
C464        C465   1.376       .  D
C465        C587   1.537       .  S
C470        C554   1.573       .  S
C470        C472   1.519       .  S
C470        C474   1.521       .  S
C470        C473   1.588       .  S
C471        C475   1.512       .  S
C471        C477   1.523       .  S
C471        C476   1.579       .  S
C472        C480   1.382       .  A
C472        C475   1.395       .  A
C473        C484   1.395       .  A
C473        C476   1.433       .  A
C474        C488   1.379       .  A
C474        C477   1.399       .  A
C475        C478   1.375       .  A
C476        C482   1.391       .  A
C477        C485   1.384       .  A
C478        N479   1.343       .  A
C478        H491   1.075       .  S
N479        C500   1.430       .  S
N479        C480   1.346       .  A
C480        H481   1.081       .  S
C482        N483   1.368       .  A
C482        H492   1.081       .  S
N483        C484   1.370       .  A
C484        H490   1.081       .  S
C485        N486   1.346       .  A
C485        H487   1.080       .  S
N486        C512   1.436       .  S
N486        C488   1.348       .  A
C488        H489   1.073       .  S
C493        C494   1.545       .  S
C493        C499   1.562       .  S
C493        C497   1.547       .  S
C493        C682   1.520       .  S
C494        H501   1.087       .  S
C494        C495   1.343       .  D
C495        C496   1.514       .  S
C495        N580   1.419       .  S
C496        C500   1.518       .  S
C496        C498   1.532       .  S
C496        H502   1.112       .  S
C497        H503   1.077       .  S
C497        C498   1.370       .  D
C498        C517   1.517       .  S
C499        H504   1.081       .  S
C499        C500   1.363       .  D
C505        C506   1.549       .  S
C505        C511   1.567       .  S
C505        C509   1.539       .  S
C505        C671   1.519       .  S
C506        H513   1.087       .  S
C506        C507   1.346       .  D
C507        C508   1.516       .  S
C507        N603   1.426       .  S
C508        C512   1.519       .  S
C508        C510   1.540       .  S
C508        H514   1.112       .  S
C509        H515   1.078       .  S
C509        C510   1.357       .  D
C511        H516   1.082       .  S
C511        C512   1.372       .  D
C517        C519   1.517       .  S
C517        C521   1.522       .  S
C517        C520   1.534       .  S
C518        C522   1.535       .  S
C518        C524   1.533       .  S
C518        C523   1.585       .  S
C519        C527   1.378       .  A
C519        C522   1.366       .  A
C520        C531   1.367       .  A
C520        C523   1.417       .  A
C521        C535   1.373       .  A
C521        C524   1.402       .  A
C522        C525   1.369       .  A
C523        C529   1.405       .  A
C524        C532   1.379       .  A
C525        N526   1.367       .  A
C525        H538   1.069       .  S
N526        C557   1.470       .  S
N526        C527   1.354       .  A
C527        H528   1.071       .  S
C529        N530   1.369       .  A
C529        H539   1.079       .  S
N530        C531   1.350       .  A
C531        H537   1.077       .  S
C532        N533   1.352       .  A
C532        H534   1.076       .  S
N533        C545   1.430       .  S
N533        C535   1.342       .  A
C535        H536   1.079       .  S
C540        C541   1.555       .  S
C540        C546   1.567       .  S
C540        C544   1.553       .  S
C540        C657   1.543       .  S
C541        H548   1.079       .  S
C541        C542   1.351       .  D
C542        C543   1.515       .  S
C543        C547   1.540       .  S
C543        C545   1.518       .  S
C543        H549   1.112       .  S
C544        H550   1.086       .  S
C544        C545   1.355       .  D
C546        H551   1.081       .  S
C546        C547   1.379       .  D
C547        C564   1.543       .  S
C552        C553   1.548       .  S
C552        C558   1.567       .  S
C552        C556   1.551       .  S
C552        C640   1.552       .  S
C553        H560   1.082       .  S
C553        C554   1.357       .  D
C554        C555   1.589       .  S
C555        C559   1.590       .  S
C555        C557   1.567       .  S
C555        H561   1.110       .  S
C556        H562   1.086       .  S
C556        C557   1.357       .  D
C558        H563   1.077       .  S
C558        C559   1.372       .  D
C559        C588   1.587       .  S
C564        C566   1.517       .  S
C564        C568   1.519       .  S
C564        C567   1.542       .  S
C565        C569   1.532       .  S
C565        C571   1.521       .  S
C565        C570   1.584       .  S
C566        C574   1.366       .  A
C566        C569   1.376       .  A
C567        C570   1.425       .  A
C568        C582   1.370       .  A
C568        C571   1.403       .  A
C569        C572   1.376       .  A
C571        C579   1.369       .  A
C572        N573   1.362       .  A
C572        H585   1.079       .  S
N573        C574   1.352       .  A
C574        H575   1.068       .  S
C576        N577   1.369       .  A
C576        H586   1.080       .  S
N577        C578   1.356       .  A
N577        N600   1.412       .  S
C578        H584   1.080       .  S
C579        N580   1.344       .  A
C579        H581   1.075       .  S
N580        C582   1.341       .  A
C582        H583   1.079       .  S
C587        C589   1.509       .  S
C587        C591   1.517       .  S
C587        C590   1.533       .  S
C588        C592   1.531       .  S
C588        C594   1.539       .  S
C588        C593   1.587       .  S
C589        C597   1.367       .  A
C589        C592   1.374       .  A
C590        C601   1.364       .  A
C590        C593   1.424       .  A
C591        C605   1.365       .  A
C591        C594   1.406       .  A
C592        C595   1.359       .  A
C593        C599   1.404       .  A
C594        C602   1.375       .  A
C595        N596   1.362       .  A
C595        H608   1.065       .  S
N596        C597   1.349       .  A
C597        H598   1.070       .  S
C599        N600   1.370       .  A
C599        H609   1.080       .  S
N600        C601   1.346       .  A
C601        H607   1.076       .  S
C602        N603   1.355       .  A
C602        H604   1.076       .  S
N603        C605   1.342       .  A
C605        H606   1.078       .  S
O610       C1743   1.241   1_545  A
O610      Co1005   1.902   1_545  S
O611        C619   1.244   1_545  A
O611      Co1381   1.935   1_545  S
O612        C620   1.256       .  A
O612      Co1382   1.976   1_545  S
O613        C621   1.258       .  A
O613      Co1383   1.983   1_545  S
O614       C2120   1.256       .  A
O614      Co1381   1.979   1_545  S
O615      Co1005   1.975   1_545  S
O616        C619   1.256       .  A
O616      Co1383   2.012       .  S
O617       C1368   1.277       .  A
O617       Co632   2.050       .  S
C618       O1735   1.241   1_465  A
C618       O1367   1.277       .  A
C619        C668   1.469       .  S
C620       O2114   1.256   1_455  A
C620        C696   1.485       .  S
O623       C2136   1.282       .  A
O623       Co631   2.033       .  S
O624        C637   1.250       .  A
O624       Co632   1.957   1_655  S
O625        C638   1.263       .  A
O625       Co633   1.981       .  S
O626        C638   1.278       .  A
O626       Co631   2.038       .  S
O627       C1762   1.268       .  A
O628        C635   1.272       .  A
O628       Co633   1.946       .  S
O629        C636   1.272       .  A
O629       Co632   1.904       .  S
Co630       O985   1.901       .  S
Co630       O990   1.975   1_556  S
Co630       O634   2.116       .  S
Co631      O1361   1.935       .  S
Co631      O1364   1.979       .  S
Co631       O634   2.088       .  S
Co632      O1362   1.976       .  S
Co632      O2134   1.980   1_455  S
Co633      O1363   1.983       .  S
Co633      O1366   2.012       .  S
Co633       O634   2.019       .  S
O634      Co2132   1.980       .  S
C636       O2123   1.282   1_455  A
C636        C724   1.464       .  S
C637       O1752   1.268       .  A
C638        C643   1.497       .  S
C639        C640   1.414       .  A
C639        C644   1.410       .  A
C639        H646   1.077       .  S
C640        C641   1.434       .  A
C641        C642   1.400       .  A
C641        N648   1.436       .  S
C642        C643   1.402       .  A
C642        H647   1.084       .  S
C643        C644   1.412       .  A
C644        N645   1.432       .  S
N645        H649   1.046       .  S
N645        H650   1.045       .  S
N648        H651   1.041       .  S
N648        H652   1.042       .  S
C653        C654   1.402       .  A
C653        C658   1.407       .  A
C653        H660   1.084       .  S
C654        C655   1.407       .  A
C655        C656   1.403       .  A
C656        C657   1.418       .  A
C656        H661   1.075       .  S
C657        C658   1.417       .  A
C658        N659   1.438       .  S
N659        H663   1.046       .  S
N659        H664   1.045       .  S
N662       H2165   1.044       .  S
N662       H2166   1.046   1_556  S
H665       N2162   1.044       .  S
H666       N2162   1.046   1_554  S
C667        C668   1.393       .  A
C667        C672   1.401   1_565  A
C667        H674   1.084       .  S
C668        C669   1.414   1_565  A
C669        C670   1.396       .  A
C669        N676   1.433       .  S
C670        C671   1.400       .  A
C670        H675   1.079       .  S
C671        C672   1.427       .  A
C672        N673   1.438   1_545  S
N673        H677   1.046       .  S
N673        H678   1.045       .  S
N676        H679   1.046       .  S
N676        H680   1.046   1_545  S
C681        C682   1.401       .  A
C681        C686   1.399       .  A
C681        H688   1.077       .  S
C682        C683   1.417       .  A
C683        C684   1.400       .  A
C683        N690   1.433       .  S
C684        C685   1.399       .  A
C685        C686   1.419       .  A
C686        N687   1.439       .  S
N687        H691   1.045       .  S
N687        H692   1.046       .  S
N690        H693   1.046       .  S
C695        C696   1.407       .  A
C695        C700   1.403       .  A
C695       H1452   1.083       .  S
C696        C697   1.413       .  A
C697        C698   1.399       .  A
C697       N2204   1.433   1_455  S
C698        C699   1.410       .  A
C698        H703   1.078       .  S
C699        C700   1.415       .  A
C700        N701   1.438       .  S
N701        H705   1.046       .  S
N701        H706   1.045       .  S
H702       C1445   1.083       .  S
N704       C2197   1.433       .  S
N704        H707   1.046       .  S
N704        H708   1.043       .  S
C709        C710   1.408       .  A
C709        C714   1.407       .  A
C709        H716   1.077       .  S
C710        C711   1.422       .  A
C711        C712   1.399       .  A
C711        N718   1.434       .  S
C712        C713   1.395       .  A
C712        H717   1.084       .  S
C713        C714   1.413       .  A
C714        N715   1.438       .  S
N715        H719   1.046       .  S
N718        H721   1.046       .  S
N718        H722   1.046       .  S
C723        C724   1.408       .  A
C723        C728   1.400       .  A
C723        H730   1.084   1_455  S
C724        C725   1.395       .  A
C725        C726   1.398       .  A
C725        N732   1.438       .  S
C726        C727   1.422       .  A
C726        H731   1.084       .  S
C727        C728   1.410       .  A
C728        N729   1.429       .  S
N729        H733   1.046   1_455  S
N729        H734   1.046   1_455  S
N732        H735   1.046       .  S
N732        H736   1.046       .  S
C737        C738   1.407       .  A
C737        C742   1.401       .  A
C737        H744   1.084       .  S
C738        C739   1.419       .  A
C739        C740   1.410       .  A
C739        N746   1.437       .  S
C740        C741   1.402       .  A
C740       H1495   1.084   1_545  S
C741        C742   1.414       .  A
N743        H747   1.046       .  S
N743        H748   1.044       .  S
H745       C1490   1.084       .  S
N746        H749   1.045       .  S
N746       H1500   1.046   1_545  S
H750       N1496   1.046       .  S
C751        C752   1.541       .  S
C751        C757   1.567       .  S
C751        C755   1.543       .  S
C751       C1113   1.542       .  S
C752        H759   1.086       .  S
C752        C753   1.338       .  D
C753        C754   1.567       .  S
C753        N948   1.452       .  S
C754        C758   1.580       .  S
C754        C756   1.576       .  S
C754        H760   1.109       .  S
C755        H761   1.071       .  S
C755        C756   1.357       .  D
C756        C799   1.560       .  S
C757        H762   1.084       .  S
C757        C758   1.378       .  D
C758        C763   1.582       .  S
C763        C765   1.511       .  S
C763        C767   1.522       .  S
C763        C766   1.584       .  S
C764        C793   1.581       .  S
C764        C768   1.517       .  S
C764        C770   1.511       .  S
C764        C769   1.586       .  S
C765        C773   1.371       .  A
C765        C768   1.401       .  A
C766       C2277   1.392   1_455  A
C766        C769   1.436       .  A
C767        C781   1.373       .  A
C767        C770   1.401       .  A
C768        C771   1.372       .  A
C769       C2275   1.393   1_455  A
C770        C778   1.373       .  A
C771        N772   1.344       .  A
C771        H784   1.072       .  S
N772        C917   1.424       .  S
N772        C773   1.338       .  A
C773        H774   1.081       .  S
C775       C2269   1.393       .  A
C775        N776   1.369       .  A
C775        H785   1.081       .  S
N776        C777   1.370       .  A
N776        N858   1.430       .  S
C777       C2266   1.392       .  A
C777        H783   1.082       .  S
C778        N779   1.339       .  A
C778        H780   1.081       .  S
N779        C835   1.427       .  S
N779        C781   1.345       .  A
C781        H782   1.073       .  S
C786        C787   1.539       .  S
C786        C792   1.568       .  S
C786        C790   1.541       .  S
C786       C1102   1.528       .  S
C787        H794   1.087       .  S
C787        C788   1.344       .  D
C788        C789   1.560       .  S
C788        N971   1.453       .  S
C789        C793   1.591       .  S
C789        C791   1.581       .  S
C789        H795   1.110       .  S
C790        H796   1.080       .  S
C790        C791   1.351       .  D
C791        C893   1.559       .  S
C792        H797   1.077       .  S
C792        C793   1.373       .  D
C798        C885   1.509       .  S
C798        C800   1.502       .  S
C798        C802   1.535       .  S
C798        C801   1.516       .  S
C799        C803   1.545       .  S
C799        C805   1.519       .  S
C799        C804   1.608       .  S
C800        C808   1.368       .  A
C800        C803   1.360       .  A
C801        C812   1.364       .  A
C801        C804   1.419       .  A
C802        C816   1.375       .  A
C802        C805   1.403       .  A
C803        C806   1.377       .  A
C804        C810   1.412       .  A
C805        C813   1.376       .  A
C806        N807   1.358       .  A
C806        H819   1.061       .  S
N807        C826   1.452       .  S
N807        C808   1.351       .  A
C808        H809   1.077       .  S
N811        N905   1.413       .  S
C813        N814   1.350       .  A
C813        H815   1.077       .  S
N814        C838   1.427       .  S
N814        C816   1.345       .  A
C816        H817   1.080       .  S
C821        C822   1.560       .  S
C821        C827   1.543       .  S
C821        C825   1.545       .  S
C821       C1085   1.532       .  S
C822        H829   1.079       .  S
C822        C823   1.367       .  D
C823        C824   1.586       .  S
C823        C846   1.567       .  S
C824        C828   1.586       .  S
C824        C826   1.538       .  S
C824        H830   1.110       .  S
C825        H831   1.086       .  S
C825        C826   1.359       .  D
C827        H832   1.083       .  S
C827        C828   1.354       .  D
C828        C940   1.565       .  S
C833        C834   1.555       .  S
C833        C839   1.554       .  S
C833        C837   1.553       .  S
C833       C1074   1.533       .  S
C834        H841   1.081       .  S
C834        C835   1.356       .  D
C835        C836   1.520       .  S
C836        C840   1.536       .  S
C836        C838   1.517       .  S
C836        H842   1.112       .  S
C837        H843   1.086       .  S
C837        C838   1.353       .  D
C839        H844   1.076       .  S
C839        C840   1.376       .  D
C840        C962   1.536       .  S
C845        C929   1.573       .  S
C845        C847   1.519       .  S
C845        C849   1.521       .  S
C845        C848   1.588       .  S
C846        C850   1.512       .  S
C846        C852   1.523       .  S
C846        C851   1.579       .  S
C847        C855   1.382       .  A
C847        C850   1.395       .  A
C848        C859   1.395       .  A
C848        C851   1.432       .  A
C849        C863   1.379       .  A
C849        C852   1.399       .  A
C850        C853   1.375       .  A
C851        C857   1.391       .  A
C852        C860   1.384       .  A
C853        N854   1.343       .  A
C853        H866   1.075       .  S
N854        C875   1.430       .  S
N854        C855   1.346       .  A
C855        H856   1.081       .  S
C857        N858   1.368       .  A
C857        H867   1.081       .  S
N858        C859   1.370       .  A
C859        H865   1.081       .  S
C860        N861   1.346       .  A
C860        H862   1.080       .  S
N861        C887   1.436       .  S
N861        C863   1.348       .  A
C863        H864   1.073       .  S
C868        C869   1.545       .  S
C868        C874   1.562       .  S
C868        C872   1.547       .  S
C868       C1057   1.520       .  S
C869        H876   1.087       .  S
C869        C870   1.343       .  D
C870        C871   1.514       .  S
C870        N955   1.419       .  S
C871        C875   1.519       .  S
C871        C873   1.532       .  S
C871        H877   1.112       .  S
C872        H878   1.077       .  S
C872        C873   1.370       .  D
C873        C892   1.517       .  S
C874        H879   1.081       .  S
C874        C875   1.363       .  D
C880        C881   1.548       .  S
C880        C886   1.567       .  S
C880        C884   1.539       .  S
C880       C1046   1.519       .  S
C881        H888   1.087       .  S
C881        C882   1.346       .  D
C882        C883   1.516       .  S
C882        N978   1.426       .  S
C883        C887   1.519       .  S
C883        C885   1.540       .  S
C883        H889   1.112       .  S
C884        H890   1.078       .  S
C884        C885   1.357       .  D
C886        H891   1.082       .  S
C886        C887   1.372       .  D
C892        C894   1.517       .  S
C892        C896   1.522       .  S
C892        C895   1.534       .  S
C893        C897   1.535       .  S
C893        C899   1.533       .  S
C893        C898   1.585       .  S
C894        C902   1.378       .  A
C894        C897   1.366       .  A
C895        C906   1.367       .  A
C895        C898   1.417       .  A
C896        C910   1.373       .  A
C896        C899   1.402       .  A
C897        C900   1.369       .  A
C898        C904   1.405       .  A
C899        C907   1.379       .  A
C900        N901   1.367       .  A
C900        H913   1.069       .  S
N901        C932   1.470       .  S
N901        C902   1.354       .  A
C902        H903   1.071       .  S
C904        N905   1.369       .  A
C904        H914   1.079       .  S
N905        C906   1.350       .  A
C906        H912   1.077       .  S
C907        N908   1.352       .  A
C907        H909   1.076       .  S
N908        C920   1.430       .  S
N908        C910   1.342       .  A
C910        H911   1.079       .  S
C915        C916   1.555       .  S
C915        C921   1.567       .  S
C915        C919   1.553       .  S
C915       C1032   1.543   1_554  S
C916        H923   1.079       .  S
C916        C917   1.351       .  D
C917        C918   1.515       .  S
C918        C922   1.540       .  S
C918        C920   1.518       .  S
C918        H924   1.112       .  S
C919        H925   1.086       .  S
C919        C920   1.355       .  D
C921        H926   1.081   1_554  S
C921        C922   1.379       .  D
C922        C939   1.543       .  S
C927        C928   1.548       .  S
C927        C933   1.567       .  S
C927        C931   1.551       .  S
C927       C1015   1.552       .  S
C928        H935   1.082       .  S
C928        C929   1.357       .  D
C929        C930   1.589       .  S
C930        C934   1.590       .  S
C930        C932   1.567       .  S
C930        H936   1.110       .  S
C931        H937   1.086       .  S
C931        C932   1.357       .  D
C933        H938   1.077       .  S
C933        C934   1.372       .  D
C934        C963   1.587       .  S
C939        C941   1.517       .  S
C939        C943   1.519       .  S
C939        C942   1.541       .  S
C940        C944   1.532       .  S
C940        C946   1.521       .  S
C940        C945   1.584       .  S
C941        C949   1.366       .  A
C941        C944   1.376       .  A
C942       C1328   1.369   1_554  A
C942        C945   1.425       .  A
C943        C957   1.370       .  A
C943        C946   1.403       .  A
C944        C947   1.377       .  A
C945       C1326   1.397   1_554  A
C946        C954   1.369       .  A
C947        N948   1.362       .  A
C947        H960   1.079       .  S
N948        C949   1.352       .  A
C949        H950   1.068       .  S
C951       C1320   1.397       .  A
C951        N952   1.369       .  A
C951        H961   1.080       .  S
N952        C953   1.356       .  A
N952        N975   1.412       .  S
C953       C1317   1.369       .  A
C953        H959   1.080       .  S
C954        N955   1.344       .  A
C954        H956   1.075       .  S
N955        C957   1.341       .  A
C957        H958   1.079       .  S
C962        C964   1.509       .  S
C962        C966   1.517       .  S
C962        C965   1.533       .  S
C963        C967   1.531       .  S
C963        C969   1.539       .  S
C963        C968   1.587       .  S
C964        C972   1.367       .  A
C964        C967   1.374       .  A
C965        C976   1.364       .  A
C965        C968   1.424       .  A
C966        C980   1.364       .  A
C966        C969   1.406       .  A
C967        C970   1.359       .  A
C968        C974   1.404       .  A
C969        C977   1.375       .  A
C970        N971   1.362       .  A
C970        H983   1.065       .  S
N971        C972   1.349       .  A
C972        H973   1.070       .  S
C974        N975   1.370       .  A
C974        H984   1.080       .  S
N975        C976   1.346       .  A
C976        H982   1.076       .  S
C977        N978   1.355       .  A
C977        H979   1.076       .  S
N978        C980   1.342       .  A
C980        H981   1.078       .  S
O985       C2868   1.241       .  A
O986        C994   1.244       .  A
O987        C995   1.256       .  A
O988        C996   1.258       .  A
O989       C2495   1.256       .  A
O990       C1371   1.256   1_554  A
O991        C994   1.256       .  A
O992      Co1007   2.050       .  S
C993       O2860   1.241   1_455  A
C993       C1491   1.464       .  S
C994       C1043   1.469       .  S
C995       O2489   1.256   1_455  A
C995       C1071   1.485       .  S
C996       O1365   1.256       .  A
C996       C1463   1.475       .  S
O997       C1385   1.271       .  A
O997      Co1380   1.997       .  S
O998       C2511   1.282       .  A
O998      Co1006   2.032       .  S
O999       C1012   1.250       .  A
O999      Co1007   1.957   1_655  S
O1000      C1013   1.263       .  A
O1000     Co1008   1.981       .  S
O1001      C1013   1.278       .  A
O1001     Co1006   2.038       .  S
O1002      C2887   1.268       .  A
O1002     Co1380   2.023       .  S
O1003      C1010   1.272       .  A
O1003     Co1008   1.946       .  S
O1004      C1011   1.272       .  A
O1004     Co1007   1.905       .  S
Co1005     O1372   1.996       .  S
Co1005     O1377   2.024       .  S
Co1005     O1009   2.116       .  S
Co1006     O1009   2.088       .  S
Co1007     O2509   1.980   1_455  S
Co1008     O1009   2.019       .  S
O1009     Co2507   1.980       .  S
C1010      O1372   1.271       .  A
C1010      C1435   1.476       .  S
C1011      O2498   1.282   1_455  A
C1011      C1099   1.464       .  S
C1012      O2877   1.268       .  A
C1012      C1404   1.473   1_655  S
C1013      C1018   1.497       .  S
C1014      C1015   1.413       .  A
C1014      C1019   1.410       .  A
C1014      H1021   1.077       .  S
C1015      C1016   1.434       .  A
C1016      C1017   1.400       .  A
C1016      N1023   1.437       .  S
C1017      C1018   1.402       .  A
C1017      H1022   1.084       .  S
C1018      C1019   1.412       .  A
C1019      N1020   1.432       .  S
N1020      H1024   1.046       .  S
N1020      H1025   1.045       .  S
N1023      H1026   1.041       .  S
N1023      H1027   1.042       .  S
C1028      C1029   1.402       .  A
C1028      C1033   1.407       .  A
C1028      H1035   1.084       .  S
C1029      C1030   1.407       .  A
C1029      C1387   1.473   1_455  S
C1030      C1031   1.403       .  A
C1030      N1412   1.439   1_455  S
C1031      C1032   1.418       .  A
C1031      H1036   1.075   1_556  S
C1032      C1033   1.417       .  A
C1033      N1034   1.438       .  S
N1034      H1038   1.046       .  S
N1034      H1039   1.045       .  S
N1037      C1405   1.439   1_655  S
N1037      H2540   1.044       .  S
N1037      H2541   1.046       .  S
H1040      N2537   1.044       .  S
H1041      N2537   1.046       .  S
C1042      C1043   1.393       .  A
C1042      C1047   1.401       .  A
C1042      H1049   1.084       .  S
C1043      C1044   1.413       .  A
C1044      C1045   1.396       .  A
C1044      N1051   1.433       .  S
C1045      C1046   1.400       .  A
C1045      H1050   1.079       .  S
C1046      C1047   1.427       .  A
C1047      N1048   1.438       .  S
N1048      H1052   1.046       .  S
N1048      H1053   1.045       .  S
N1051      H1054   1.046       .  S
N1051      H1055   1.046       .  S
C1056      C1057   1.401       .  A
C1056      C1061   1.399       .  A
C1056      H1063   1.077       .  S
C1057      C1058   1.417       .  A
C1058      C1059   1.400       .  A
C1058      N1065   1.433       .  S
C1059      C1060   1.399       .  A
C1059      H1439   1.084       .  S
C1060      C1061   1.419       .  A
C1060      C1385   1.477   1_554  S
C1061      N1062   1.439       .  S
N1062      H1066   1.045       .  S
N1062      H1067   1.046       .  S
H1064      C1434   1.084       .  S
N1065      H1068   1.046       .  S
N1065      H1444   1.046       .  S
H1069      N1440   1.046       .  S
C1070      C1071   1.407       .  A
C1070      C1075   1.403       .  A
C1071      C1072   1.413       .  A
C1072      C1073   1.399       .  A
C1072      N2579   1.433   1_455  S
C1073      C1074   1.410       .  A
C1073      H1078   1.078       .  S
C1074      C1075   1.415       .  A
C1075      N1076   1.438       .  S
N1076      H1080   1.046       .  S
N1076      H1081   1.045       .  S
N1079      C2572   1.433       .  S
N1079      H1082   1.046       .  S
N1079      H1083   1.043       .  S
C1084      C1085   1.408       .  A
C1084      C1089   1.407       .  A
C1084      H1091   1.077       .  S
C1085      C1086   1.422       .  A
C1086      C1087   1.399   1_554  A
C1086      N1093   1.434       .  S
C1087      C1088   1.395       .  A
C1087      H1092   1.084       .  S
C1088      C1089   1.413   1_556  A
C1088      C1371   1.475       .  S
C1089      N1090   1.438       .  S
N1090      H1094   1.046       .  S
N1090      H1470   1.045       .  S
N1093      H1096   1.046   1_554  S
N1093      H1097   1.046       .  S
H1095      N1465   1.045       .  S
C1098      C1099   1.408       .  A
C1098      C1103   1.399       .  A
C1098      H1105   1.085   1_455  S
C1099      C1100   1.395       .  A
C1100      C1101   1.398       .  A
C1100      N1107   1.438       .  S
C1101      C1102   1.422       .  A
C1101      H1106   1.084       .  S
C1102      C1103   1.410       .  A
C1103      N1104   1.429       .  S
N1104      H1108   1.046   1_455  S
N1104      H1109   1.046   1_455  S
N1107      H1110   1.046       .  S
N1107      H1111   1.046       .  S
C1112      C1113   1.407       .  A
C1112      C1117   1.401       .  A
C1112      H1119   1.084       .  S
C1113      C1114   1.419       .  A
C1114      C1115   1.410       .  A
C1114      N1121   1.437       .  S
C1115      C1116   1.402       .  A
C1116      C1117   1.414       .  A
C1116      C1368   1.464   1_554  S
C1117      N1493   1.438   1_554  S
N1118      C1492   1.438       .  S
N1118      H1122   1.046       .  S
N1118      H1123   1.044       .  S
N1121      H1124   1.045       .  S
C1126      C1127   1.541       .  S
C1126      C1132   1.567       .  S
C1126      C1130   1.543       .  S
C1126      C1488   1.542       .  S
C1127      H1134   1.086       .  S
C1127      C1128   1.338       .  D
C1128      C1129   1.567       .  S
C1128      N1323   1.452       .  S
C1129      C1133   1.580       .  S
C1129      C1131   1.576       .  S
C1129      H1135   1.109       .  S
C1130      H1136   1.071       .  S
C1130      C1131   1.357       .  D
C1131      C1174   1.560       .  S
C1132      H1137   1.084       .  S
C1132      C1133   1.378       .  D
C1133      C1138   1.582       .  S
C1138      C1140   1.511       .  S
C1138      C1142   1.522       .  S
C1138      C1141   1.584       .  S
C1139      C1168   1.581       .  S
C1139      C1143   1.517       .  S
C1139      C1145   1.510       .  S
C1139      C1144   1.586       .  S
C1140      C1148   1.371       .  A
C1140      C1143   1.401       .  A
C1141      C2652   1.392   1_455  A
C1141      C1144   1.436       .  A
C1142      C1156   1.373       .  A
C1142      C1145   1.401       .  A
C1143      C1146   1.372       .  A
C1144      C2650   1.393   1_455  A
C1145      C1153   1.372       .  A
C1146      N1147   1.344       .  A
C1146      H1159   1.073       .  S
N1147      C1292   1.424       .  S
N1147      C1148   1.338       .  A
C1148      H1149   1.081       .  S
C1150      C2644   1.393       .  A
C1150      N1151   1.369       .  A
C1150      H1160   1.081       .  S
N1151      C1152   1.370       .  A
N1151      N1233   1.430       .  S
C1152      C2641   1.392       .  A
C1152      H1158   1.082       .  S
C1153      N1154   1.339       .  A
C1153      H1155   1.081       .  S
N1154      C1210   1.427       .  S
N1154      C1156   1.345       .  A
C1156      H1157   1.073       .  S
C1161      C1162   1.539       .  S
C1161      C1167   1.568       .  S
C1161      C1165   1.541       .  S
C1161      C1477   1.528       .  S
C1162      H1169   1.087       .  S
C1162      C1163   1.344       .  D
C1163      C1164   1.560       .  S
C1163      N1346   1.453       .  S
C1164      C1168   1.591       .  S
C1164      C1166   1.581       .  S
C1164      H1170   1.110       .  S
C1165      H1171   1.080       .  S
C1165      C1166   1.351       .  D
C1166      C1268   1.559       .  S
C1167      H1172   1.077       .  S
C1167      C1168   1.373       .  D
C1173      C1260   1.509       .  S
C1173      C1175   1.503       .  S
C1173      C1177   1.535       .  S
C1173      C1176   1.516       .  S
C1174      C1178   1.545       .  S
C1174      C1180   1.519       .  S
C1174      C1179   1.608       .  S
C1175      C1183   1.368       .  A
C1175      C1178   1.360       .  A
C1176      C1187   1.364       .  A
C1176      C1179   1.419       .  A
C1177      C1191   1.375       .  A
C1177      C1180   1.403       .  A
C1178      C1181   1.377       .  A
C1179      C1185   1.412       .  A
C1180      C1188   1.376       .  A
C1181      N1182   1.358       .  A
C1181      H1194   1.061       .  S
N1182      C1201   1.452       .  S
N1182      C1183   1.351       .  A
C1183      H1184   1.077       .  S
N1186      N1280   1.413       .  S
C1188      N1189   1.350       .  A
C1188      H1190   1.077       .  S
N1189      C1213   1.427       .  S
N1189      C1191   1.344       .  A
C1191      H1192   1.080       .  S
C1196      C1197   1.560       .  S
C1196      C1202   1.543       .  S
C1196      C1200   1.544       .  S
C1196      C1460   1.532       .  S
C1197      H1204   1.079       .  S
C1197      C1198   1.367       .  D
C1198      C1199   1.586       .  S
C1198      C1221   1.567       .  S
C1199      C1203   1.586       .  S
C1199      C1201   1.538       .  S
C1199      H1205   1.110       .  S
C1200      H1206   1.086       .  S
C1200      C1201   1.359       .  D
C1202      H1207   1.083       .  S
C1202      C1203   1.353       .  D
C1203      C1315   1.565       .  S
C1208      C1209   1.555       .  S
C1208      C1214   1.554       .  S
C1208      C1212   1.553       .  S
C1208      C1449   1.533       .  S
C1209      H1216   1.081       .  S
C1209      C1210   1.356       .  D
C1210      C1211   1.520       .  S
C1211      C1215   1.536       .  S
C1211      C1213   1.517       .  S
C1211      H1217   1.112       .  S
C1212      H1218   1.086       .  S
C1212      C1213   1.353       .  D
C1214      H1219   1.076       .  S
C1214      C1215   1.376       .  D
C1215      C1337   1.537       .  S
C1220      C1304   1.573       .  S
C1220      C1222   1.519       .  S
C1220      C1224   1.521       .  S
C1220      C1223   1.588       .  S
C1221      C1225   1.512       .  S
C1221      C1227   1.523       .  S
C1221      C1226   1.579       .  S
C1222      C1230   1.382       .  A
C1222      C1225   1.395       .  A
C1223      C1234   1.395       .  A
C1223      C1226   1.433       .  A
C1224      C1238   1.379       .  A
C1224      C1227   1.399       .  A
C1225      C1228   1.375       .  A
C1226      C1232   1.391       .  A
C1227      C1235   1.384       .  A
C1228      N1229   1.343       .  A
C1228      H1241   1.075       .  S
N1229      C1250   1.430       .  S
N1229      C1230   1.346       .  A
C1230      H1231   1.081       .  S
C1232      N1233   1.368       .  A
C1232      H1242   1.081       .  S
N1233      C1234   1.370       .  A
C1234      H1240   1.081       .  S
C1235      N1236   1.346       .  A
C1235      H1237   1.080       .  S
N1236      C1262   1.436       .  S
N1236      C1238   1.348       .  A
C1238      H1239   1.073       .  S
C1243      C1244   1.545       .  S
C1243      C1249   1.562       .  S
C1243      C1247   1.547       .  S
C1243      C1432   1.520       .  S
C1244      H1251   1.087       .  S
C1244      C1245   1.343       .  D
C1245      C1246   1.514       .  S
C1245      N1330   1.419       .  S
C1246      C1250   1.518       .  S
C1246      C1248   1.532       .  S
C1246      H1252   1.112       .  S
C1247      H1253   1.077       .  S
C1247      C1248   1.370       .  D
C1248      C1267   1.517       .  S
C1249      H1254   1.081       .  S
C1249      C1250   1.363       .  D
C1255      C1256   1.549       .  S
C1255      C1261   1.567       .  S
C1255      C1259   1.539       .  S
C1255      C1421   1.519       .  S
C1256      H1263   1.087       .  S
C1256      C1257   1.346       .  D
C1257      C1258   1.516       .  S
C1257      N1353   1.426       .  S
C1258      C1262   1.519       .  S
C1258      C1260   1.540       .  S
C1258      H1264   1.112       .  S
C1259      H1265   1.078       .  S
C1259      C1260   1.357       .  D
C1261      H1266   1.082       .  S
C1261      C1262   1.372       .  D
C1267      C1269   1.517       .  S
C1267      C1271   1.522       .  S
C1267      C1270   1.534       .  S
C1268      C1272   1.535       .  S
C1268      C1274   1.533       .  S
C1268      C1273   1.585       .  S
C1269      C1277   1.378       .  A
C1269      C1272   1.366       .  A
C1270      C1281   1.367       .  A
C1270      C1273   1.417       .  A
C1271      C1285   1.373       .  A
C1271      C1274   1.402       .  A
C1272      C1275   1.369       .  A
C1273      C1279   1.405       .  A
C1274      C1282   1.379       .  A
C1275      N1276   1.367       .  A
C1275      H1288   1.069       .  S
N1276      C1307   1.470       .  S
N1276      C1277   1.354       .  A
C1277      H1278   1.071       .  S
C1279      N1280   1.369       .  A
C1279      H1289   1.079       .  S
N1280      C1281   1.350       .  A
C1281      H1287   1.077       .  S
C1282      N1283   1.352       .  A
C1282      H1284   1.076       .  S
N1283      C1295   1.430       .  S
N1283      C1285   1.342       .  A
C1285      H1286   1.079       .  S
C1290      C1291   1.555       .  S
C1290      C1296   1.567       .  S
C1290      C1294   1.553       .  S
C1290      C1407   1.543       .  S
C1291      H1298   1.079       .  S
C1291      C1292   1.351       .  D
C1292      C1293   1.515       .  S
C1293      C1297   1.540       .  S
C1293      C1295   1.518       .  S
C1293      H1299   1.112       .  S
C1294      H1300   1.086       .  S
C1294      C1295   1.355       .  D
C1296      H1301   1.081       .  S
C1296      C1297   1.379       .  D
C1297      C1314   1.543       .  S
C1302      C1303   1.548       .  S
C1302      C1308   1.567       .  S
C1302      C1306   1.551       .  S
C1302      C1390   1.552       .  S
C1303      H1310   1.082       .  S
C1303      C1304   1.357       .  D
C1304      C1305   1.589       .  S
C1305      C1309   1.590       .  S
C1305      C1307   1.567       .  S
C1305      H1311   1.110       .  S
C1306      H1312   1.086       .  S
C1306      C1307   1.357       .  D
C1308      H1313   1.077       .  S
C1308      C1309   1.372       .  D
C1309      C1338   1.587       .  S
C1314      C1316   1.517       .  S
C1314      C1318   1.519       .  S
C1314      C1317   1.542       .  S
C1315      C1319   1.532       .  S
C1315      C1321   1.521       .  S
C1315      C1320   1.584       .  S
C1316      C1324   1.366       .  A
C1316      C1319   1.376       .  A
C1317      C1320   1.425       .  A
C1318      C1332   1.370       .  A
C1318      C1321   1.403       .  A
C1319      C1322   1.376       .  A
C1321      C1329   1.369       .  A
C1322      N1323   1.362       .  A
C1322      H1335   1.079       .  S
N1323      C1324   1.352       .  A
C1324      H1325   1.068       .  S
C1326      N1327   1.369       .  A
C1326      H1336   1.080       .  S
N1327      C1328   1.356       .  A
N1327      N1350   1.412       .  S
C1328      H1334   1.080       .  S
C1329      N1330   1.344       .  A
C1329      H1331   1.075       .  S
N1330      C1332   1.341       .  A
C1332      H1333   1.079       .  S
C1337      C1339   1.509       .  S
C1337      C1341   1.517       .  S
C1337      C1340   1.533       .  S
C1338      C1342   1.531       .  S
C1338      C1344   1.539       .  S
C1338      C1343   1.587       .  S
C1339      C1347   1.367       .  A
C1339      C1342   1.374       .  A
C1340      C1351   1.364       .  A
C1340      C1343   1.424       .  A
C1341      C1355   1.365       .  A
C1341      C1344   1.406       .  A
C1342      C1345   1.359       .  A
C1343      C1349   1.404       .  A
C1344      C1352   1.375       .  A
C1345      N1346   1.362       .  A
C1345      H1358   1.065       .  S
N1346      C1347   1.349       .  A
C1347      H1348   1.070       .  S
C1349      N1350   1.370       .  A
C1349      H1359   1.080       .  S
N1350      C1351   1.346       .  A
C1351      H1357   1.076       .  S
C1352      N1353   1.355       .  A
C1352      H1354   1.076       .  S
N1353      C1355   1.342       .  A
C1355      H1356   1.078       .  S
O1360      C2493   1.241       .  A
O1361      C1369   1.244       .  A
O1362      C1370   1.256       .  A
O1363      C1371   1.258       .  A
O1364      C2870   1.256       .  A
O1366      C1369   1.256       .  A
O1367     Co1382   2.050       .  S
C1368      O2485   1.241   1_455  A
C1369      C1418   1.469       .  S
C1370      O2864   1.256   1_455  A
C1370      C1446   1.485       .  S
O1373      C2886   1.282       .  A
O1373     Co1381   2.033       .  S
O1374      C1387   1.250       .  A
O1374     Co1382   1.957   1_655  S
O1375      C1388   1.263       .  A
O1375     Co1383   1.981       .  S
O1376      C1388   1.278       .  A
O1376     Co1381   2.038       .  S
O1377      C2512   1.268       .  A
O1378      C1385   1.272       .  A
O1378     Co1383   1.946       .  S
O1379      C1386   1.272       .  A
O1379     Co1382   1.904       .  S
Co1380     O1384   2.116       .  S
Co1381     O1384   2.088       .  S
Co1382     O2884   1.980   1_455  S
Co1383     O1384   2.019       .  S
O1384     Co2882   1.980       .  S
C1386      O2873   1.282   1_455  A
C1386      C1474   1.464       .  S
C1387      O2502   1.268       .  A
C1388      C1393   1.497       .  S
C1389      C1390   1.414       .  A
C1389      C1394   1.410       .  A
C1389      H1396   1.077       .  S
C1390      C1391   1.434       .  A
C1391      C1392   1.400       .  A
C1391      N1398   1.436       .  S
C1392      C1393   1.402       .  A
C1392      H1397   1.084       .  S
C1393      C1394   1.412       .  A
C1394      N1395   1.432       .  S
N1395      H1399   1.046       .  S
N1395      H1400   1.045       .  S
N1398      H1401   1.041       .  S
N1398      H1402   1.042       .  S
C1403      C1404   1.402       .  A
C1403      C1408   1.407       .  A
C1403      H1410   1.084       .  S
C1404      C1405   1.407       .  A
C1405      C1406   1.403       .  A
C1406      C1407   1.418       .  A
C1406      H1411   1.075       .  S
C1407      C1408   1.417       .  A
C1408      N1409   1.438       .  S
N1409      H1413   1.046       .  S
N1409      H1414   1.045       .  S
N1412      H2915   1.044       .  S
N1412      H2916   1.046   1_556  S
H1415      N2912   1.044       .  S
H1416      N2912   1.046   1_554  S
C1417      C1418   1.393       .  A
C1417      C1422   1.401       .  A
C1417      H1424   1.084       .  S
C1418      C1419   1.414       .  A
C1419      C1420   1.396       .  A
C1419      N1426   1.433       .  S
C1420      C1421   1.400       .  A
C1420      H1425   1.079       .  S
C1421      C1422   1.427       .  A
C1422      N1423   1.438       .  S
N1423      H1427   1.046       .  S
N1423      H1428   1.045       .  S
N1426      H1429   1.046       .  S
N1426      H1430   1.046       .  S
C1431      C1432   1.401       .  A
C1431      C1436   1.399       .  A
C1431      H1438   1.077       .  S
C1432      C1433   1.417       .  A
C1433      C1434   1.400       .  A
C1433      N1440   1.433       .  S
C1434      C1435   1.399       .  A
C1435      C1436   1.419       .  A
C1436      N1437   1.439       .  S
N1437      H1441   1.045       .  S
N1437      H1442   1.046       .  S
N1440      H1443   1.046       .  S
C1445      C1446   1.407       .  A
C1445      C1450   1.403       .  A
C1446      C1447   1.413       .  A
C1447      C1448   1.399       .  A
C1447      N2954   1.433   1_455  S
C1448      C1449   1.410       .  A
C1448      H1453   1.078       .  S
C1449      C1450   1.415       .  A
C1450      N1451   1.438       .  S
N1451      H1455   1.046       .  S
N1451      H1456   1.045       .  S
N1454      C2947   1.433       .  S
N1454      H1457   1.046       .  S
N1454      H1458   1.043       .  S
C1459      C1460   1.408       .  A
C1459      C1464   1.407       .  A
C1459      H1466   1.077       .  S
C1460      C1461   1.422       .  A
C1461      C1462   1.399       .  A
C1461      N1468   1.434       .  S
C1462      C1463   1.395       .  A
C1462      H1467   1.084       .  S
C1463      C1464   1.413       .  A
C1464      N1465   1.438       .  S
N1465      H1469   1.046       .  S
N1468      H1471   1.046       .  S
N1468      H1472   1.046       .  S
C1473      C1474   1.408       .  A
C1473      C1478   1.400       .  A
C1473      H1480   1.084   1_455  S
C1474      C1475   1.395       .  A
C1475      C1476   1.398       .  A
C1475      N1482   1.438       .  S
C1476      C1477   1.422       .  A
C1476      H1481   1.084       .  S
C1477      C1478   1.410       .  A
C1478      N1479   1.429       .  S
N1479      H1483   1.046   1_455  S
N1479      H1484   1.046   1_455  S
N1482      H1485   1.046       .  S
N1482      H1486   1.046       .  S
C1487      C1488   1.407       .  A
C1487      C1492   1.401       .  A
C1487      H1494   1.084       .  S
C1488      C1489   1.419       .  A
C1489      C1490   1.410       .  A
C1489      N1496   1.437       .  S
C1490      C1491   1.402       .  A
C1491      C1492   1.414       .  A
N1493      H1497   1.046       .  S
N1493      H1498   1.044       .  S
N1496      H1499   1.045       .  S
C1501      C1502   1.541       .  S
C1501      C1507   1.567       .  S
C1501      C1505   1.543       .  S
C1501      C1863   1.542       .  S
C1502      H1509   1.086       .  S
C1502      C1503   1.338       .  D
C1503      C1504   1.567       .  S
C1503      N1698   1.452       .  S
C1504      C1508   1.580       .  S
C1504      C1506   1.576       .  S
C1504      H1510   1.109       .  S
C1505      H1511   1.071       .  S
C1505      C1506   1.357       .  D
C1506      C1549   1.560       .  S
C1507      H1512   1.084       .  S
C1507      C1508   1.378       .  D
C1508      C1513   1.582       .  S
C1513      C1515   1.511       .  S
C1513      C1517   1.522       .  S
C1513      C1516   1.584       .  S
C1514      C1543   1.581       .  S
C1514      C1518   1.517       .  S
C1514      C1520   1.511       .  S
C1514      C1519   1.586       .  S
C1515      C1523   1.371       .  A
C1515      C1518   1.401       .  A
C1516      C1519   1.436       .  A
C1517      C1531   1.373       .  A
C1517      C1520   1.401       .  A
C1518      C1521   1.372       .  A
C1520      C1528   1.373       .  A
C1521      N1522   1.344       .  A
C1521      H1534   1.072       .  S
N1522      C1667   1.424       .  S
N1522      C1523   1.338       .  A
C1523      H1524   1.081       .  S
C1525      N1526   1.369       .  A
C1525      H1535   1.081       .  S
N1526      C1527   1.370       .  A
N1526      N1608   1.430       .  S
C1527      H1533   1.082       .  S
C1528      N1529   1.339       .  A
C1528      H1530   1.081       .  S
N1529      C1585   1.427       .  S
N1529      C1531   1.345       .  A
C1531      H1532   1.073       .  S
C1536      C1537   1.539       .  S
C1536      C1542   1.568       .  S
C1536      C1540   1.541       .  S
C1536      C1852   1.528       .  S
C1537      H1544   1.087       .  S
C1537      C1538   1.344       .  D
C1538      C1539   1.560       .  S
C1538      N1721   1.453       .  S
C1539      C1543   1.591       .  S
C1539      C1541   1.581       .  S
C1539      H1545   1.110       .  S
C1540      H1546   1.080       .  S
C1540      C1541   1.351       .  D
C1541      C1643   1.559       .  S
C1542      H1547   1.077       .  S
C1542      C1543   1.373       .  D
C1548      C1635   1.509       .  S
C1548      C1550   1.502       .  S
C1548      C1552   1.535       .  S
C1548      C1551   1.516       .  S
C1549      C1553   1.545       .  S
C1549      C1555   1.519       .  S
C1549      C1554   1.608       .  S
C1550      C1558   1.368       .  A
C1550      C1553   1.360       .  A
C1551      C1562   1.364       .  A
C1551      C1554   1.419       .  A
C1552      C1566   1.375       .  A
C1552      C1555   1.403       .  A
C1553      C1556   1.377       .  A
C1554      C1560   1.412       .  A
C1555      C1563   1.376       .  A
C1556      N1557   1.358       .  A
C1556      H1569   1.061       .  S
N1557      C1576   1.452       .  S
N1557      C1558   1.351       .  A
C1558      H1559   1.077       .  S
C1560      N2311   1.370   1_545  A
C1560      H2320   1.079       .  S
N1561      C2310   1.370       .  A
N1561      C2312   1.346       .  A
N1561      N1655   1.413       .  S
C1562      N2311   1.346   1_545  A
C1562      H2318   1.078   1_545  S
C1563      N1564   1.350       .  A
C1563      H1565   1.077       .  S
N1564      C1588   1.427       .  S
N1564      C1566   1.345       .  A
C1566      H1567   1.080       .  S
H1568      C2312   1.078       .  S
H1570      C2310   1.079       .  S
C1571      C1572   1.560       .  S
C1571      C1577   1.543       .  S
C1571      C1575   1.545       .  S
C1571      C1835   1.532       .  S
C1572      H1579   1.079       .  S
C1572      C1573   1.367       .  D
C1573      C1574   1.586       .  S
C1573      C1596   1.567       .  S
C1574      C1578   1.586       .  S
C1574      C1576   1.538       .  S
C1574      H1580   1.110       .  S
C1575      H1581   1.086       .  S
C1575      C1576   1.359       .  D
C1577      H1582   1.083       .  S
C1577      C1578   1.354       .  D
C1578      C1690   1.565       .  S
C1583      C1584   1.555       .  S
C1583      C1589   1.554       .  S
C1583      C1587   1.553       .  S
C1583      C1824   1.533       .  S
C1584      H1591   1.081       .  S
C1584      C1585   1.356       .  D
C1585      C1586   1.520       .  S
C1586      C1590   1.536       .  S
C1586      C1588   1.517       .  S
C1586      H1592   1.112       .  S
C1587      H1593   1.086       .  S
C1587      C1588   1.353       .  D
C1589      H1594   1.076       .  S
C1589      C1590   1.376       .  D
C1590      C1712   1.536       .  S
C1595      C1679   1.573       .  S
C1595      C1597   1.519       .  S
C1595      C1599   1.521       .  S
C1595      C1598   1.588       .  S
C1596      C1600   1.512       .  S
C1596      C1602   1.523       .  S
C1596      C1601   1.579       .  S
C1597      C1605   1.382       .  A
C1597      C1600   1.395       .  A
C1598      C1609   1.395       .  A
C1598      C1601   1.432       .  A
C1599      C1613   1.379       .  A
C1599      C1602   1.399       .  A
C1600      C1603   1.375       .  A
C1601      C1607   1.391       .  A
C1602      C1610   1.384       .  A
C1603      N1604   1.343       .  A
C1603      H1616   1.075       .  S
N1604      C1625   1.430       .  S
N1604      C1605   1.346       .  A
C1605      H1606   1.081       .  S
C1607      N1608   1.368       .  A
C1607      H1617   1.081       .  S
N1608      C1609   1.370       .  A
C1609      H1615   1.081       .  S
C1610      N1611   1.346       .  A
C1610      H1612   1.080       .  S
N1611      C1637   1.436       .  S
N1611      C1613   1.348       .  A
C1613      H1614   1.073       .  S
C1618      C1619   1.545       .  S
C1618      C1624   1.562       .  S
C1618      C1622   1.547       .  S
C1618      C1807   1.520       .  S
C1619      H1626   1.087       .  S
C1619      C1620   1.343       .  D
C1620      C1621   1.514       .  S
C1620      N1705   1.419       .  S
C1621      C1625   1.518       .  S
C1621      C1623   1.532       .  S
C1621      H1627   1.112       .  S
C1622      H1628   1.077       .  S
C1622      C1623   1.370       .  D
C1623      C1642   1.517       .  S
C1624      H1629   1.081       .  S
C1624      C1625   1.363       .  D
C1630      C1631   1.548       .  S
C1630      C1636   1.567       .  S
C1630      C1634   1.539       .  S
C1630      C1796   1.519       .  S
C1631      H1638   1.087       .  S
C1631      C1632   1.346       .  D
C1632      C1633   1.516       .  S
C1632      N1728   1.426       .  S
C1633      C1637   1.519       .  S
C1633      C1635   1.540       .  S
C1633      H1639   1.112       .  S
C1634      H1640   1.078       .  S
C1634      C1635   1.357       .  D
C1636      H1641   1.082       .  S
C1636      C1637   1.372       .  D
C1642      C1644   1.517       .  S
C1642      C1646   1.522       .  S
C1642      C1645   1.534       .  S
C1643      C1647   1.535       .  S
C1643      C1649   1.533       .  S
C1643      C1648   1.585       .  S
C1644      C1652   1.378       .  A
C1644      C1647   1.366       .  A
C1645      C1656   1.367       .  A
C1645      C1648   1.417       .  A
C1646      C1660   1.373       .  A
C1646      C1649   1.402       .  A
C1647      C1650   1.369       .  A
C1648      C1654   1.405       .  A
C1649      C1657   1.379       .  A
C1650      N1651   1.367       .  A
C1650      H1663   1.069       .  S
N1651      C1682   1.470       .  S
N1651      C1652   1.354       .  A
C1652      H1653   1.071       .  S
C1654      N1655   1.369       .  A
C1654      H1664   1.079       .  S
N1655      C1656   1.350       .  A
C1656      H1662   1.077       .  S
C1657      N1658   1.352       .  A
C1657      H1659   1.076       .  S
N1658      C1670   1.430       .  S
N1658      C1660   1.342       .  A
C1660      H1661   1.079       .  S
C1665      C1666   1.555       .  S
C1665      C1671   1.567       .  S
C1665      C1669   1.553       .  S
C1665      C1782   1.543   1_554  S
C1666      H1673   1.079       .  S
C1666      C1667   1.351       .  D
C1667      C1668   1.515       .  S
C1668      C1672   1.540       .  S
C1668      C1670   1.518       .  S
C1668      H1674   1.112       .  S
C1669      H1675   1.086       .  S
C1669      C1670   1.355       .  D
C1671      H1676   1.081   1_554  S
C1671      C1672   1.379       .  D
C1672      C1689   1.543       .  S
C1677      C1678   1.548       .  S
C1677      C1683   1.567       .  S
C1677      C1681   1.551       .  S
C1677      C1765   1.552       .  S
C1678      H1685   1.082       .  S
C1678      C1679   1.357       .  D
C1679      C1680   1.589       .  S
C1680      C1684   1.590       .  S
C1680      C1682   1.567       .  S
C1680      H1686   1.110       .  S
C1681      H1687   1.086       .  S
C1681      C1682   1.357       .  D
C1683      H1688   1.077       .  S
C1683      C1684   1.372       .  D
C1684      C1713   1.587       .  S
C1689      C1691   1.517       .  S
C1689      C1693   1.519       .  S
C1689      C1692   1.541       .  S
C1690      C1694   1.532       .  S
C1690      C1696   1.521       .  S
C1690      C1695   1.584       .  S
C1691      C1699   1.366       .  A
C1691      C1694   1.376       .  A
C1692      C2078   1.369   1_554  A
C1692      C1695   1.425       .  A
C1693      C1707   1.370       .  A
C1693      C1696   1.403       .  A
C1694      C1697   1.377       .  A
C1695      C2076   1.397   1_554  A
C1696      C1704   1.369       .  A
C1697      N1698   1.362       .  A
C1697      H1710   1.079       .  S
N1698      C1699   1.352       .  A
C1699      H1700   1.068       .  S
C1701      C2070   1.397       .  A
C1701      N1702   1.369       .  A
C1701      H1711   1.080       .  S
N1702      C1703   1.356       .  A
N1702      N1725   1.412       .  S
C1703      C2067   1.369       .  A
C1703      H1709   1.080       .  S
C1704      N1705   1.344       .  A
C1704      H1706   1.075       .  S
N1705      C1707   1.341       .  A
C1707      H1708   1.079       .  S
C1712      C1714   1.509       .  S
C1712      C1716   1.517       .  S
C1712      C1715   1.533       .  S
C1713      C1717   1.531       .  S
C1713      C1719   1.539       .  S
C1713      C1718   1.587       .  S
C1714      C1722   1.367       .  A
C1714      C1717   1.374       .  A
C1715      C1726   1.364       .  A
C1715      C1718   1.424       .  A
C1716      C1730   1.364       .  A
C1716      C1719   1.406       .  A
C1717      C1720   1.359       .  A
C1718      C1724   1.404       .  A
C1719      C1727   1.375       .  A
C1720      N1721   1.362       .  A
C1720      H1733   1.065       .  S
N1721      C1722   1.349       .  A
C1722      H1723   1.070       .  S
C1724      N1725   1.370       .  A
C1724      H1734   1.080       .  S
N1725      C1726   1.346       .  A
C1726      H1732   1.076       .  S
C1727      N1728   1.355       .  A
C1727      H1729   1.076       .  S
N1728      C1730   1.342       .  A
C1730      H1731   1.078       .  S
O1735     Co2880   1.901   1_545  S
O1736      C1744   1.244   1_545  A
O1736     Co2506   1.935   1_545  S
O1737      C1745   1.256       .  A
O1737     Co2507   1.976   1_545  S
O1738      C1746   1.258       .  A
O1738     Co2508   1.984   1_545  S
O1739     Co2506   1.979   1_545  S
O1740      C2121   1.256   1_554  A
O1740     Co2880   1.975   1_544  S
O1741      C1744   1.256       .  A
O1741     Co2508   2.012       .  S
O1742      C2493   1.277       .  A
O1742     Co1757   2.050       .  S
C1743      O2492   1.277       .  A
C1743      C2241   1.464   1_565  S
C1744      C1793   1.469       .  S
C1745      C1821   1.485       .  S
C1746      O2115   1.256       .  A
C1746      C2213   1.475       .  S
O1747      C2135   1.271       .  A
O1747     Co2130   1.997       .  S
O1748     Co1756   2.032       .  S
O1749      C1762   1.250       .  A
O1749     Co1757   1.957       .  S
O1750      C1763   1.263       .  A
O1750     Co1758   1.981       .  S
O1751      C1763   1.278       .  A
O1751     Co1756   2.038       .  S
O1752     Co2130   2.023       .  S
O1753      C1760   1.272       .  A
O1753     Co1758   1.946       .  S
O1754      C1761   1.272       .  A
O1754     Co1757   1.905       .  S
Co1755     O2860   1.902       .  S
Co1755     O2865   1.975       .  S
Co1755     O2122   1.996       .  S
Co1755     O2127   2.024       .  S
Co1755     O1759   2.116       .  S
Co1756     O2486   1.935       .  S
Co1756     O2489   1.979       .  S
Co1756     O1759   2.088       .  S
Co1757     O2487   1.976       .  S
Co1758     O2488   1.984       .  S
Co1758     O2491   2.012       .  S
Co1758     O1759   2.019       .  S
C1760      O2122   1.271       .  A
C1760      C2185   1.476       .  S
C1761      C1849   1.464       .  S
C1762      C2154   1.473       .  S
C1763      C1768   1.497       .  S
C1764      C1765   1.413       .  A
C1764      C1769   1.410       .  A
C1764      H1771   1.077       .  S
C1765      C1766   1.434       .  A
C1766      C1767   1.400       .  A
C1766      N1773   1.437       .  S
C1767      C1768   1.402       .  A
C1767      H1772   1.084       .  S
C1768      C1769   1.412       .  A
C1769      N1770   1.432       .  S
N1770      H1774   1.046       .  S
N1770      H1775   1.045       .  S
N1773      H1776   1.041       .  S
N1773      H1777   1.042       .  S
C1778      C1779   1.402       .  A
C1778      C1783   1.407       .  A
C1778      H1785   1.084       .  S
C1779      C1780   1.407       .  A
C1779      C2137   1.473       .  S
C1780      C1781   1.403       .  A
C1780      N2162   1.439       .  S
C1781      C1782   1.418       .  A
C1781      H1786   1.075   1_556  S
C1782      C1783   1.417       .  A
C1783      N1784   1.438       .  S
N1784      H1788   1.046       .  S
N1784      H1789   1.045       .  S
N1787      C2155   1.439       .  S
C1792      C1793   1.393       .  A
C1792      C1797   1.401   1_565  A
C1792      H1799   1.084       .  S
C1793      C1794   1.413   1_565  A
C1794      C1795   1.396       .  A
C1794      N1801   1.433       .  S
C1795      C1796   1.400       .  A
C1795      H1800   1.079       .  S
C1796      C1797   1.427       .  A
C1797      N1798   1.438   1_545  S
N1798      H1802   1.046       .  S
N1798      H1803   1.045       .  S
N1801      H1804   1.046       .  S
N1801      H1805   1.046   1_545  S
C1806      C1807   1.401       .  A
C1806      C1811   1.399       .  A
C1806      H1813   1.077       .  S
C1807      C1808   1.417       .  A
C1808      C1809   1.400       .  A
C1808      N1815   1.433       .  S
C1809      C1810   1.399       .  A
C1809      H2189   1.084       .  S
C1810      C1811   1.419       .  A
C1810      C2135   1.477   1_554  S
C1811      N1812   1.439       .  S
N1812      H1816   1.045       .  S
N1812      H1817   1.046       .  S
H1814      C2184   1.084       .  S
N1815      H1818   1.046       .  S
N1815      H2194   1.046       .  S
H1819      N2190   1.046       .  S
C1820      C1821   1.407       .  A
C1820      C1825   1.403       .  A
C1820      H2577   1.083       .  S
C1821      C1822   1.413       .  A
C1822      C1823   1.399       .  A
C1823      C1824   1.410       .  A
C1823      H1828   1.078       .  S
C1824      C1825   1.415       .  A
C1825      N1826   1.438       .  S
N1826      H1830   1.046       .  S
N1826      H1831   1.045       .  S
H1827      C2570   1.083       .  S
N1829      H1832   1.046       .  S
N1829      H1833   1.043       .  S
C1834      C1835   1.408       .  A
C1834      C1839   1.407       .  A
C1834      H1841   1.077       .  S
C1835      C1836   1.422       .  A
C1836      C1837   1.399   1_554  A
C1836      N1843   1.434       .  S
C1837      C1838   1.395       .  A
C1837      H1842   1.084       .  S
C1838      C1839   1.413   1_556  A
C1838      C2121   1.475       .  S
C1839      N1840   1.438       .  S
N1840      H1844   1.046       .  S
N1840      H2220   1.045       .  S
N1843      H1846   1.046   1_554  S
N1843      H1847   1.046       .  S
H1845      N2215   1.045       .  S
C1848      C1849   1.408       .  A
C1848      C1853   1.399       .  A
C1848      H1855   1.085       .  S
C1849      C1850   1.395       .  A
C1850      C1851   1.398       .  A
C1850      N1857   1.438       .  S
C1851      C1852   1.422       .  A
C1851      H1856   1.084       .  S
C1852      C1853   1.410       .  A
C1853      N1854   1.429       .  S
N1854      H1858   1.046       .  S
N1854      H1859   1.046       .  S
N1857      H1860   1.046       .  S
N1857      H1861   1.046       .  S
C1862      C1863   1.407       .  A
C1862      C1867   1.401       .  A
C1862      H1869   1.084       .  S
C1863      C1864   1.419       .  A
C1864      C1865   1.410       .  A
C1864      N1871   1.437       .  S
C1865      C1866   1.402       .  A
C1865      H2620   1.084   1_545  S
C1866      C1867   1.414       .  A
C1866      C2118   1.464   1_544  S
C1867      N2243   1.438   1_554  S
N1868      C2242   1.438       .  S
N1868      H1872   1.046       .  S
N1868      H1873   1.044       .  S
H1870      C2615   1.084       .  S
N1871      H1874   1.045       .  S
N1871      H2625   1.046   1_545  S
H1875      N2621   1.046       .  S
C1876      C1877   1.541       .  S
C1876      C1882   1.567       .  S
C1876      C1880   1.543       .  S
C1876      C2238   1.542       .  S
C1877      H1884   1.086       .  S
C1877      C1878   1.338       .  D
C1878      C1879   1.567       .  S
C1878      N2073   1.452       .  S
C1879      C1883   1.580       .  S
C1879      C1881   1.576       .  S
C1879      H1885   1.109       .  S
C1880      H1886   1.071       .  S
C1880      C1881   1.357       .  D
C1881      C1924   1.560       .  S
C1882      H1887   1.084       .  S
C1882      C1883   1.378       .  D
C1883      C1888   1.582       .  S
C1888      C1890   1.511       .  S
C1888      C1892   1.522       .  S
C1888      C1891   1.584       .  S
C1889      C1918   1.581       .  S
C1889      C1893   1.517       .  S
C1889      C1895   1.510       .  S
C1889      C1894   1.586       .  S
C1890      C1898   1.371       .  A
C1890      C1893   1.401       .  A
C1891      C1894   1.436       .  A
C1892      C1906   1.373       .  A
C1892      C1895   1.401       .  A
C1893      C1896   1.372       .  A
C1895      C1903   1.372       .  A
C1896      N1897   1.344       .  A
C1896      H1909   1.073       .  S
N1897      C2042   1.424       .  S
N1897      C1898   1.338       .  A
C1898      H1899   1.081       .  S
C1900      N1901   1.369       .  A
C1900      H1910   1.081       .  S
N1901      C1902   1.370       .  A
N1901      N1983   1.430       .  S
C1902      H1908   1.082       .  S
C1903      N1904   1.339       .  A
C1903      H1905   1.081       .  S
N1904      C1960   1.427       .  S
N1904      C1906   1.345       .  A
C1906      H1907   1.073       .  S
C1911      C1912   1.539       .  S
C1911      C1917   1.568       .  S
C1911      C1915   1.541       .  S
C1911      C2227   1.528       .  S
C1912      H1919   1.087       .  S
C1912      C1913   1.344       .  D
C1913      C1914   1.560       .  S
C1913      N2096   1.453       .  S
C1914      C1918   1.591       .  S
C1914      C1916   1.581       .  S
C1914      H1920   1.110       .  S
C1915      H1921   1.080       .  S
C1915      C1916   1.351       .  D
C1916      C2018   1.559       .  S
C1917      H1922   1.077       .  S
C1917      C1918   1.373       .  D
C1923      C2010   1.509       .  S
C1923      C1925   1.503       .  S
C1923      C1927   1.535       .  S
C1923      C1926   1.516       .  S
C1924      C1928   1.545       .  S
C1924      C1930   1.519       .  S
C1924      C1929   1.608       .  S
C1925      C1933   1.368       .  A
C1925      C1928   1.360       .  A
C1926      C1937   1.364       .  A
C1926      C1929   1.419       .  A
C1927      C1941   1.375       .  A
C1927      C1930   1.403       .  A
C1928      C1931   1.377       .  A
C1929      C1935   1.412       .  A
C1930      C1938   1.376       .  A
C1931      N1932   1.358       .  A
C1931      H1944   1.061       .  S
N1932      C1951   1.452       .  S
N1932      C1933   1.351       .  A
C1933      H1934   1.077       .  S
C1935      N2686   1.369   1_545  A
C1935      H2695   1.079       .  S
N1936      C2685   1.369       .  A
N1936      C2687   1.346       .  A
N1936      N2030   1.413       .  S
C1937      N2686   1.346   1_545  A
C1937      H2693   1.078   1_545  S
C1938      N1939   1.350       .  A
C1938      H1940   1.077       .  S
N1939      C1963   1.427       .  S
N1939      C1941   1.344       .  A
C1941      H1942   1.080       .  S
H1943      C2687   1.078       .  S
H1945      C2685   1.079       .  S
C1946      C1947   1.560       .  S
C1946      C1952   1.543       .  S
C1946      C1950   1.544       .  S
C1946      C2210   1.532       .  S
C1947      H1954   1.079       .  S
C1947      C1948   1.367       .  D
C1948      C1949   1.586       .  S
C1948      C1971   1.567       .  S
C1949      C1953   1.586       .  S
C1949      C1951   1.538       .  S
C1949      H1955   1.110       .  S
C1950      H1956   1.086       .  S
C1950      C1951   1.359       .  D
C1952      H1957   1.083       .  S
C1952      C1953   1.353       .  D
C1953      C2065   1.565       .  S
C1958      C1959   1.555       .  S
C1958      C1964   1.554       .  S
C1958      C1962   1.553       .  S
C1958      C2199   1.533       .  S
C1959      H1966   1.081       .  S
C1959      C1960   1.356       .  D
C1960      C1961   1.520       .  S
C1961      C1965   1.536       .  S
C1961      C1963   1.517       .  S
C1961      H1967   1.112       .  S
C1962      H1968   1.086       .  S
C1962      C1963   1.353       .  D
C1964      H1969   1.076       .  S
C1964      C1965   1.376       .  D
C1965      C2087   1.537       .  S
C1970      C2054   1.573       .  S
C1970      C1972   1.519       .  S
C1970      C1974   1.521       .  S
C1970      C1973   1.588       .  S
C1971      C1975   1.512       .  S
C1971      C1977   1.523       .  S
C1971      C1976   1.579       .  S
C1972      C1980   1.382       .  A
C1972      C1975   1.395       .  A
C1973      C1984   1.395       .  A
C1973      C1976   1.433       .  A
C1974      C1988   1.379       .  A
C1974      C1977   1.399       .  A
C1975      C1978   1.375       .  A
C1976      C1982   1.391       .  A
C1977      C1985   1.384       .  A
C1978      N1979   1.343       .  A
C1978      H1991   1.075       .  S
N1979      C2000   1.430       .  S
N1979      C1980   1.346       .  A
C1980      H1981   1.081       .  S
C1982      N1983   1.368       .  A
C1982      H1992   1.081       .  S
N1983      C1984   1.370       .  A
C1984      H1990   1.081       .  S
C1985      N1986   1.346       .  A
C1985      H1987   1.080       .  S
N1986      C2012   1.436       .  S
N1986      C1988   1.348       .  A
C1988      H1989   1.073       .  S
C1993      C1994   1.545       .  S
C1993      C1999   1.562       .  S
C1993      C1997   1.547       .  S
C1993      C2182   1.520       .  S
C1994      H2001   1.087       .  S
C1994      C1995   1.343       .  D
C1995      C1996   1.514       .  S
C1995      N2080   1.419       .  S
C1996      C2000   1.518       .  S
C1996      C1998   1.532       .  S
C1996      H2002   1.112       .  S
C1997      H2003   1.077       .  S
C1997      C1998   1.370       .  D
C1998      C2017   1.517       .  S
C1999      H2004   1.081       .  S
C1999      C2000   1.363       .  D
C2005      C2006   1.549       .  S
C2005      C2011   1.567       .  S
C2005      C2009   1.539       .  S
C2005      C2171   1.519       .  S
C2006      H2013   1.087       .  S
C2006      C2007   1.346       .  D
C2007      C2008   1.516       .  S
C2007      N2103   1.426       .  S
C2008      C2012   1.519       .  S
C2008      C2010   1.540       .  S
C2008      H2014   1.112       .  S
C2009      H2015   1.078       .  S
C2009      C2010   1.357       .  D
C2011      H2016   1.082       .  S
C2011      C2012   1.372       .  D
C2017      C2019   1.517       .  S
C2017      C2021   1.522       .  S
C2017      C2020   1.534       .  S
C2018      C2022   1.535       .  S
C2018      C2024   1.533       .  S
C2018      C2023   1.585       .  S
C2019      C2027   1.378       .  A
C2019      C2022   1.366       .  A
C2020      C2031   1.367       .  A
C2020      C2023   1.417       .  A
C2021      C2035   1.373       .  A
C2021      C2024   1.402       .  A
C2022      C2025   1.369       .  A
C2023      C2029   1.405       .  A
C2024      C2032   1.379       .  A
C2025      N2026   1.367       .  A
C2025      H2038   1.069       .  S
N2026      C2057   1.470       .  S
N2026      C2027   1.354       .  A
C2027      H2028   1.071       .  S
C2029      N2030   1.369       .  A
C2029      H2039   1.079       .  S
N2030      C2031   1.350       .  A
C2031      H2037   1.077       .  S
C2032      N2033   1.352       .  A
C2032      H2034   1.076       .  S
N2033      C2045   1.430       .  S
N2033      C2035   1.342       .  A
C2035      H2036   1.079       .  S
C2040      C2041   1.555       .  S
C2040      C2046   1.567       .  S
C2040      C2044   1.553       .  S
C2040      C2157   1.543       .  S
C2041      H2048   1.079       .  S
C2041      C2042   1.351       .  D
C2042      C2043   1.515       .  S
C2043      C2047   1.540       .  S
C2043      C2045   1.518       .  S
C2043      H2049   1.112       .  S
C2044      H2050   1.086       .  S
C2044      C2045   1.355       .  D
C2046      H2051   1.081       .  S
C2046      C2047   1.379       .  D
C2047      C2064   1.543       .  S
C2052      C2053   1.548       .  S
C2052      C2058   1.567       .  S
C2052      C2056   1.551       .  S
C2052      C2140   1.552       .  S
C2053      H2060   1.082       .  S
C2053      C2054   1.357       .  D
C2054      C2055   1.589       .  S
C2055      C2059   1.590       .  S
C2055      C2057   1.567       .  S
C2055      H2061   1.110       .  S
C2056      H2062   1.086       .  S
C2056      C2057   1.357       .  D
C2058      H2063   1.077       .  S
C2058      C2059   1.372       .  D
C2059      C2088   1.587       .  S
C2064      C2066   1.517       .  S
C2064      C2068   1.519       .  S
C2064      C2067   1.542       .  S
C2065      C2069   1.532       .  S
C2065      C2071   1.521       .  S
C2065      C2070   1.584       .  S
C2066      C2074   1.366       .  A
C2066      C2069   1.376       .  A
C2067      C2070   1.425       .  A
C2068      C2082   1.370       .  A
C2068      C2071   1.403       .  A
C2069      C2072   1.376       .  A
C2071      C2079   1.369       .  A
C2072      N2073   1.362       .  A
C2072      H2085   1.079       .  S
N2073      C2074   1.352       .  A
C2074      H2075   1.068       .  S
C2076      N2077   1.369       .  A
C2076      H2086   1.080       .  S
N2077      C2078   1.356       .  A
N2077      N2100   1.412       .  S
C2078      H2084   1.080       .  S
C2079      N2080   1.344       .  A
C2079      H2081   1.075       .  S
N2080      C2082   1.341       .  A
C2082      H2083   1.079       .  S
C2087      C2089   1.509       .  S
C2087      C2091   1.517       .  S
C2087      C2090   1.533       .  S
C2088      C2092   1.531       .  S
C2088      C2094   1.539       .  S
C2088      C2093   1.587       .  S
C2089      C2097   1.367       .  A
C2089      C2092   1.374       .  A
C2090      C2101   1.364       .  A
C2090      C2093   1.424       .  A
C2091      C2105   1.365       .  A
C2091      C2094   1.406       .  A
C2092      C2095   1.359       .  A
C2093      C2099   1.404       .  A
C2094      C2102   1.375       .  A
C2095      N2096   1.362       .  A
C2095      H2108   1.065       .  S
N2096      C2097   1.349       .  A
C2097      H2098   1.070       .  S
C2099      N2100   1.370       .  A
C2099      H2109   1.080       .  S
N2100      C2101   1.346       .  A
C2101      H2107   1.076       .  S
C2102      N2103   1.355       .  A
C2102      H2104   1.076       .  S
N2103      C2105   1.342       .  A
C2105      H2106   1.078       .  S
O2110     Co2505   1.902   1_545  S
O2111      C2119   1.244   1_545  A
O2111     Co2881   1.935   1_545  S
O2112      C2120   1.256       .  A
O2112     Co2882   1.976   1_545  S
O2113      C2121   1.258       .  A
O2113     Co2883   1.983   1_545  S
O2114     Co2881   1.979   1_545  S
O2115     Co2505   1.975   1_545  S
O2116      C2119   1.256       .  A
O2116     Co2883   2.012       .  S
O2117      C2868   1.277       .  A
O2117     Co2132   2.050       .  S
C2118      O2867   1.277       .  A
C2119      C2168   1.469       .  S
C2120      C2196   1.485       .  S
O2123     Co2131   2.033       .  S
O2124      C2137   1.250       .  A
O2124     Co2132   1.957       .  S
O2125      C2138   1.263       .  A
O2125     Co2133   1.981       .  S
O2126      C2138   1.278       .  A
O2126     Co2131   2.038       .  S
O2128      C2135   1.272       .  A
O2128     Co2133   1.946       .  S
O2129      C2136   1.272       .  A
O2129     Co2132   1.904       .  S
Co2130     O2485   1.901       .  S
Co2130     O2490   1.975   1_556  S
Co2130     O2134   2.116       .  S
Co2131     O2861   1.935       .  S
Co2131     O2864   1.979       .  S
Co2131     O2134   2.088       .  S
Co2132     O2862   1.976       .  S
Co2133     O2863   1.983       .  S
Co2133     O2866   2.012       .  S
Co2133     O2134   2.019       .  S
C2136      C2224   1.464       .  S
C2138      C2143   1.497       .  S
C2139      C2140   1.414       .  A
C2139      C2144   1.410       .  A
C2139      H2146   1.077       .  S
C2140      C2141   1.434       .  A
C2141      C2142   1.400       .  A
C2141      N2148   1.436       .  S
C2142      C2143   1.402       .  A
C2142      H2147   1.084       .  S
C2143      C2144   1.412       .  A
C2144      N2145   1.432       .  S
N2145      H2149   1.046       .  S
N2145      H2150   1.045       .  S
N2148      H2151   1.041       .  S
N2148      H2152   1.042       .  S
C2153      C2154   1.402       .  A
C2153      C2158   1.407       .  A
C2153      H2160   1.084       .  S
C2154      C2155   1.407       .  A
C2155      C2156   1.403       .  A
C2156      C2157   1.418       .  A
C2156      H2161   1.075       .  S
C2157      C2158   1.417       .  A
C2158      N2159   1.438       .  S
N2159      H2163   1.046       .  S
N2159      H2164   1.045       .  S
C2167      C2168   1.393       .  A
C2167      C2172   1.401   1_565  A
C2167      H2174   1.084       .  S
C2168      C2169   1.414   1_565  A
C2169      C2170   1.396       .  A
C2169      N2176   1.433       .  S
C2170      C2171   1.400       .  A
C2170      H2175   1.079       .  S
C2171      C2172   1.427       .  A
C2172      N2173   1.438   1_545  S
N2173      H2177   1.046       .  S
N2173      H2178   1.045       .  S
N2176      H2179   1.046       .  S
N2176      H2180   1.046   1_545  S
C2181      C2182   1.401       .  A
C2181      C2186   1.399       .  A
C2181      H2188   1.077       .  S
C2182      C2183   1.417       .  A
C2183      C2184   1.400       .  A
C2183      N2190   1.433       .  S
C2184      C2185   1.399       .  A
C2185      C2186   1.419       .  A
C2186      N2187   1.439       .  S
N2187      H2191   1.045       .  S
N2187      H2192   1.046       .  S
N2190      H2193   1.046       .  S
C2195      C2196   1.407       .  A
C2195      C2200   1.403       .  A
C2195      H2952   1.083       .  S
C2196      C2197   1.413       .  A
C2197      C2198   1.399       .  A
C2198      C2199   1.410       .  A
C2198      H2203   1.078       .  S
C2199      C2200   1.415       .  A
C2200      N2201   1.438       .  S
N2201      H2205   1.046       .  S
N2201      H2206   1.045       .  S
H2202      C2945   1.083       .  S
N2204      H2207   1.046       .  S
N2204      H2208   1.043       .  S
C2209      C2210   1.408       .  A
C2209      C2214   1.407       .  A
C2209      H2216   1.077       .  S
C2210      C2211   1.422       .  A
C2211      C2212   1.399       .  A
C2211      N2218   1.434       .  S
C2212      C2213   1.395       .  A
C2212      H2217   1.084       .  S
C2213      C2214   1.413       .  A
C2214      N2215   1.438       .  S
N2215      H2219   1.046       .  S
N2218      H2221   1.046       .  S
N2218      H2222   1.046       .  S
C2223      C2224   1.408       .  A
C2223      C2228   1.400       .  A
C2223      H2230   1.084       .  S
C2224      C2225   1.395       .  A
C2225      C2226   1.398       .  A
C2225      N2232   1.438       .  S
C2226      C2227   1.422       .  A
C2226      H2231   1.084       .  S
C2227      C2228   1.410       .  A
C2228      N2229   1.429       .  S
N2229      H2233   1.046       .  S
N2229      H2234   1.046       .  S
N2232      H2235   1.046       .  S
N2232      H2236   1.046       .  S
C2237      C2238   1.407       .  A
C2237      C2242   1.401       .  A
C2237      H2244   1.084       .  S
C2238      C2239   1.419       .  A
C2239      C2240   1.410       .  A
C2239      N2246   1.437       .  S
C2240      C2241   1.402       .  A
C2240      H2995   1.084   1_545  S
C2241      C2242   1.414       .  A
N2243      H2247   1.046       .  S
N2243      H2248   1.044       .  S
H2245      C2990   1.084       .  S
N2246      H2249   1.045       .  S
N2246      H3000   1.046   1_545  S
H2250      N2996   1.046       .  S
C2251      C2252   1.541       .  S
C2251      C2257   1.567       .  S
C2251      C2255   1.543       .  S
C2251      C2613   1.542       .  S
C2252      H2259   1.086       .  S
C2252      C2253   1.338       .  D
C2253      C2254   1.567       .  S
C2253      N2448   1.452       .  S
C2254      C2258   1.580       .  S
C2254      C2256   1.576       .  S
C2254      H2260   1.109       .  S
C2255      H2261   1.071       .  S
C2255      C2256   1.357       .  D
C2256      C2299   1.560       .  S
C2257      H2262   1.084       .  S
C2257      C2258   1.378       .  D
C2258      C2263   1.582       .  S
C2263      C2265   1.511       .  S
C2263      C2267   1.522       .  S
C2263      C2266   1.584       .  S
C2264      C2293   1.581       .  S
C2264      C2268   1.517       .  S
C2264      C2270   1.511       .  S
C2264      C2269   1.586       .  S
C2265      C2273   1.371       .  A
C2265      C2268   1.401       .  A
C2266      C2269   1.436       .  A
C2267      C2281   1.373       .  A
C2267      C2270   1.401       .  A
C2268      C2271   1.372       .  A
C2270      C2278   1.373       .  A
C2271      N2272   1.344       .  A
C2271      H2284   1.072       .  S
N2272      C2417   1.424       .  S
N2272      C2273   1.338       .  A
C2273      H2274   1.081       .  S
C2275      N2276   1.369       .  A
C2275      H2285   1.081       .  S
N2276      C2277   1.370       .  A
N2276      N2358   1.430       .  S
C2277      H2283   1.082       .  S
C2278      N2279   1.339       .  A
C2278      H2280   1.081       .  S
N2279      C2335   1.427       .  S
N2279      C2281   1.345       .  A
C2281      H2282   1.073       .  S
C2286      C2287   1.539       .  S
C2286      C2292   1.568       .  S
C2286      C2290   1.541       .  S
C2286      C2602   1.528       .  S
C2287      H2294   1.087       .  S
C2287      C2288   1.344       .  D
C2288      C2289   1.560       .  S
C2288      N2471   1.453       .  S
C2289      C2293   1.591       .  S
C2289      C2291   1.581       .  S
C2289      H2295   1.110       .  S
C2290      H2296   1.080       .  S
C2290      C2291   1.351       .  D
C2291      C2393   1.559       .  S
C2292      H2297   1.077       .  S
C2292      C2293   1.373       .  D
C2298      C2385   1.509       .  S
C2298      C2300   1.502       .  S
C2298      C2302   1.535       .  S
C2298      C2301   1.516       .  S
C2299      C2303   1.545       .  S
C2299      C2305   1.519       .  S
C2299      C2304   1.608       .  S
C2300      C2308   1.368       .  A
C2300      C2303   1.360       .  A
C2301      C2312   1.364       .  A
C2301      C2304   1.419       .  A
C2302      C2316   1.375       .  A
C2302      C2305   1.403       .  A
C2303      C2306   1.377       .  A
C2304      C2310   1.412       .  A
C2305      C2313   1.376       .  A
C2306      N2307   1.358       .  A
C2306      H2319   1.061       .  S
N2307      C2326   1.452       .  S
N2307      C2308   1.351       .  A
C2308      H2309   1.077       .  S
N2311      N2405   1.413       .  S
C2313      N2314   1.350       .  A
C2313      H2315   1.077       .  S
N2314      C2338   1.427       .  S
N2314      C2316   1.345       .  A
C2316      H2317   1.080       .  S
C2321      C2322   1.560       .  S
C2321      C2327   1.543       .  S
C2321      C2325   1.545       .  S
C2321      C2585   1.532       .  S
C2322      H2329   1.079       .  S
C2322      C2323   1.367       .  D
C2323      C2324   1.586       .  S
C2323      C2346   1.567       .  S
C2324      C2328   1.586       .  S
C2324      C2326   1.538       .  S
C2324      H2330   1.110       .  S
C2325      H2331   1.086       .  S
C2325      C2326   1.359       .  D
C2327      H2332   1.083       .  S
C2327      C2328   1.354       .  D
C2328      C2440   1.565       .  S
C2333      C2334   1.555       .  S
C2333      C2339   1.554       .  S
C2333      C2337   1.553       .  S
C2333      C2574   1.533       .  S
C2334      H2341   1.081       .  S
C2334      C2335   1.356       .  D
C2335      C2336   1.520       .  S
C2336      C2340   1.536       .  S
C2336      C2338   1.517       .  S
C2336      H2342   1.112       .  S
C2337      H2343   1.086       .  S
C2337      C2338   1.353       .  D
C2339      H2344   1.076       .  S
C2339      C2340   1.376       .  D
C2340      C2462   1.536       .  S
C2345      C2429   1.573       .  S
C2345      C2347   1.519       .  S
C2345      C2349   1.521       .  S
C2345      C2348   1.588       .  S
C2346      C2350   1.512       .  S
C2346      C2352   1.523       .  S
C2346      C2351   1.579       .  S
C2347      C2355   1.382       .  A
C2347      C2350   1.395       .  A
C2348      C2359   1.395       .  A
C2348      C2351   1.432       .  A
C2349      C2363   1.379       .  A
C2349      C2352   1.399       .  A
C2350      C2353   1.375       .  A
C2351      C2357   1.391       .  A
C2352      C2360   1.384       .  A
C2353      N2354   1.343       .  A
C2353      H2366   1.075       .  S
N2354      C2375   1.430       .  S
N2354      C2355   1.346       .  A
C2355      H2356   1.081       .  S
C2357      N2358   1.368       .  A
C2357      H2367   1.081       .  S
N2358      C2359   1.370       .  A
C2359      H2365   1.081       .  S
C2360      N2361   1.346       .  A
C2360      H2362   1.080       .  S
N2361      C2387   1.436       .  S
N2361      C2363   1.348       .  A
C2363      H2364   1.073       .  S
C2368      C2369   1.545       .  S
C2368      C2374   1.562       .  S
C2368      C2372   1.547       .  S
C2368      C2557   1.520       .  S
C2369      H2376   1.087       .  S
C2369      C2370   1.343       .  D
C2370      C2371   1.514       .  S
C2370      N2455   1.419       .  S
C2371      C2375   1.518       .  S
C2371      C2373   1.532       .  S
C2371      H2377   1.112       .  S
C2372      H2378   1.077       .  S
C2372      C2373   1.370       .  D
C2373      C2392   1.517       .  S
C2374      H2379   1.081       .  S
C2374      C2375   1.363       .  D
C2380      C2381   1.548       .  S
C2380      C2386   1.567       .  S
C2380      C2384   1.539       .  S
C2380      C2546   1.519       .  S
C2381      H2388   1.087       .  S
C2381      C2382   1.346       .  D
C2382      C2383   1.516       .  S
C2382      N2478   1.426       .  S
C2383      C2387   1.519       .  S
C2383      C2385   1.540       .  S
C2383      H2389   1.112       .  S
C2384      H2390   1.078       .  S
C2384      C2385   1.357       .  D
C2386      H2391   1.082       .  S
C2386      C2387   1.372       .  D
C2392      C2394   1.517       .  S
C2392      C2396   1.522       .  S
C2392      C2395   1.534       .  S
C2393      C2397   1.535       .  S
C2393      C2399   1.533       .  S
C2393      C2398   1.585       .  S
C2394      C2402   1.378       .  A
C2394      C2397   1.366       .  A
C2395      C2406   1.367       .  A
C2395      C2398   1.417       .  A
C2396      C2410   1.373       .  A
C2396      C2399   1.402       .  A
C2397      C2400   1.369       .  A
C2398      C2404   1.405       .  A
C2399      C2407   1.379       .  A
C2400      N2401   1.367       .  A
C2400      H2413   1.069       .  S
N2401      C2432   1.470       .  S
N2401      C2402   1.354       .  A
C2402      H2403   1.071       .  S
C2404      N2405   1.369       .  A
C2404      H2414   1.079       .  S
N2405      C2406   1.350       .  A
C2406      H2412   1.077       .  S
C2407      N2408   1.352       .  A
C2407      H2409   1.076       .  S
N2408      C2420   1.430       .  S
N2408      C2410   1.342       .  A
C2410      H2411   1.079       .  S
C2415      C2416   1.555       .  S
C2415      C2421   1.567       .  S
C2415      C2419   1.553       .  S
C2415      C2532   1.543   1_554  S
C2416      H2423   1.079       .  S
C2416      C2417   1.351       .  D
C2417      C2418   1.515       .  S
C2418      C2422   1.540       .  S
C2418      C2420   1.518       .  S
C2418      H2424   1.112       .  S
C2419      H2425   1.086       .  S
C2419      C2420   1.355       .  D
C2421      H2426   1.081   1_554  S
C2421      C2422   1.379       .  D
C2422      C2439   1.543       .  S
C2427      C2428   1.548       .  S
C2427      C2433   1.567       .  S
C2427      C2431   1.551       .  S
C2427      C2515   1.552       .  S
C2428      H2435   1.082       .  S
C2428      C2429   1.357       .  D
C2429      C2430   1.589       .  S
C2430      C2434   1.590       .  S
C2430      C2432   1.567       .  S
C2430      H2436   1.110       .  S
C2431      H2437   1.086       .  S
C2431      C2432   1.357       .  D
C2433      H2438   1.077       .  S
C2433      C2434   1.372       .  D
C2434      C2463   1.587       .  S
C2439      C2441   1.517       .  S
C2439      C2443   1.519       .  S
C2439      C2442   1.541       .  S
C2440      C2444   1.532       .  S
C2440      C2446   1.521       .  S
C2440      C2445   1.584       .  S
C2441      C2449   1.366       .  A
C2441      C2444   1.376       .  A
C2442      C2828   1.369   1_554  A
C2442      C2445   1.425       .  A
C2443      C2457   1.370       .  A
C2443      C2446   1.403       .  A
C2444      C2447   1.377       .  A
C2445      C2826   1.397   1_554  A
C2446      C2454   1.369       .  A
C2447      N2448   1.362       .  A
C2447      H2460   1.079       .  S
N2448      C2449   1.352       .  A
C2449      H2450   1.068       .  S
C2451      C2820   1.397       .  A
C2451      N2452   1.369       .  A
C2451      H2461   1.080       .  S
N2452      C2453   1.356       .  A
N2452      N2475   1.412       .  S
C2453      C2817   1.369       .  A
C2453      H2459   1.080       .  S
C2454      N2455   1.344       .  A
C2454      H2456   1.075       .  S
N2455      C2457   1.341       .  A
C2457      H2458   1.079       .  S
C2462      C2464   1.509       .  S
C2462      C2466   1.517       .  S
C2462      C2465   1.533       .  S
C2463      C2467   1.531       .  S
C2463      C2469   1.539       .  S
C2463      C2468   1.587       .  S
C2464      C2472   1.367       .  A
C2464      C2467   1.374       .  A
C2465      C2476   1.364       .  A
C2465      C2468   1.424       .  A
C2466      C2480   1.364       .  A
C2466      C2469   1.406       .  A
C2467      C2470   1.359       .  A
C2468      C2474   1.404       .  A
C2469      C2477   1.375       .  A
C2470      N2471   1.362       .  A
C2470      H2483   1.065       .  S
N2471      C2472   1.349       .  A
C2472      H2473   1.070       .  S
C2474      N2475   1.370       .  A
C2474      H2484   1.080       .  S
N2475      C2476   1.346       .  A
C2476      H2482   1.076       .  S
C2477      N2478   1.355       .  A
C2477      H2479   1.076       .  S
N2478      C2480   1.342       .  A
C2480      H2481   1.078       .  S
O2486      C2494   1.244       .  A
O2487      C2495   1.256       .  A
O2488      C2496   1.258       .  A
O2490      C2871   1.256   1_554  A
O2491      C2494   1.256       .  A
O2492     Co2507   2.050       .  S
C2493      C2991   1.464       .  S
C2494      C2543   1.469       .  S
C2495      C2571   1.485       .  S
C2496      O2865   1.256       .  A
C2496      C2963   1.475       .  S
O2497      C2885   1.271       .  A
O2497     Co2880   1.997       .  S
O2498     Co2506   2.032       .  S
O2499      C2512   1.250       .  A
O2499     Co2507   1.957       .  S
O2500      C2513   1.263       .  A
O2500     Co2508   1.981       .  S
O2501      C2513   1.278       .  A
O2501     Co2506   2.038       .  S
O2502     Co2880   2.023       .  S
O2503      C2510   1.272       .  A
O2503     Co2508   1.946       .  S
O2504      C2511   1.272       .  A
O2504     Co2507   1.905       .  S
Co2505     O2872   1.996       .  S
Co2505     O2877   2.024       .  S
Co2505     O2509   2.116       .  S
Co2506     O2509   2.088       .  S
Co2508     O2509   2.019       .  S
C2510      O2872   1.271       .  A
C2510      C2935   1.476       .  S
C2511      C2599   1.464       .  S
C2512      C2904   1.473       .  S
C2513      C2518   1.497       .  S
C2514      C2515   1.413       .  A
C2514      C2519   1.410       .  A
C2514      H2521   1.077       .  S
C2515      C2516   1.434       .  A
C2516      C2517   1.400       .  A
C2516      N2523   1.437       .  S
C2517      C2518   1.402       .  A
C2517      H2522   1.084       .  S
C2518      C2519   1.412       .  A
C2519      N2520   1.432       .  S
N2520      H2524   1.046       .  S
N2520      H2525   1.045       .  S
N2523      H2526   1.041       .  S
N2523      H2527   1.042       .  S
C2528      C2529   1.402       .  A
C2528      C2533   1.407       .  A
C2528      H2535   1.084       .  S
C2529      C2530   1.407       .  A
C2529      C2887   1.473       .  S
C2530      C2531   1.403       .  A
C2530      N2912   1.439       .  S
C2531      C2532   1.418       .  A
C2531      H2536   1.075   1_556  S
C2532      C2533   1.417       .  A
C2533      N2534   1.438       .  S
N2534      H2538   1.046       .  S
N2534      H2539   1.045       .  S
N2537      C2905   1.439       .  S
C2542      C2543   1.393       .  A
C2542      C2547   1.401       .  A
C2542      H2549   1.084       .  S
C2543      C2544   1.413       .  A
C2544      C2545   1.396       .  A
C2544      N2551   1.433       .  S
C2545      C2546   1.400       .  A
C2545      H2550   1.079       .  S
C2546      C2547   1.427       .  A
C2547      N2548   1.438       .  S
N2548      H2552   1.046       .  S
N2548      H2553   1.045       .  S
N2551      H2554   1.046       .  S
N2551      H2555   1.046       .  S
C2556      C2557   1.401       .  A
C2556      C2561   1.399       .  A
C2556      H2563   1.077       .  S
C2557      C2558   1.417       .  A
C2558      C2559   1.400       .  A
C2558      N2565   1.433       .  S
C2559      C2560   1.399       .  A
C2559      H2939   1.084       .  S
C2560      C2561   1.419       .  A
C2560      C2885   1.477   1_554  S
C2561      N2562   1.439       .  S
N2562      H2566   1.045       .  S
N2562      H2567   1.046       .  S
H2564      C2934   1.084       .  S
N2565      H2568   1.046       .  S
N2565      H2944   1.046       .  S
H2569      N2940   1.046       .  S
C2570      C2571   1.407       .  A
C2570      C2575   1.403       .  A
C2571      C2572   1.413       .  A
C2572      C2573   1.399       .  A
C2573      C2574   1.410       .  A
C2573      H2578   1.078       .  S
C2574      C2575   1.415       .  A
C2575      N2576   1.438       .  S
N2576      H2580   1.046       .  S
N2576      H2581   1.045       .  S
N2579      H2582   1.046       .  S
N2579      H2583   1.043       .  S
C2584      C2585   1.408       .  A
C2584      C2589   1.407       .  A
C2584      H2591   1.077       .  S
C2585      C2586   1.422       .  A
C2586      C2587   1.399   1_554  A
C2586      N2593   1.434       .  S
C2587      C2588   1.395       .  A
C2587      H2592   1.084       .  S
C2588      C2589   1.413   1_556  A
C2588      C2871   1.475       .  S
C2589      N2590   1.438       .  S
N2590      H2594   1.046       .  S
N2590      H2970   1.045       .  S
N2593      H2596   1.046   1_554  S
N2593      H2597   1.046       .  S
H2595      N2965   1.045       .  S
C2598      C2599   1.408       .  A
C2598      C2603   1.399       .  A
C2598      H2605   1.085       .  S
C2599      C2600   1.395       .  A
C2600      C2601   1.398       .  A
C2600      N2607   1.438       .  S
C2601      C2602   1.422       .  A
C2601      H2606   1.084       .  S
C2602      C2603   1.410       .  A
C2603      N2604   1.429       .  S
N2604      H2608   1.046       .  S
N2604      H2609   1.046       .  S
N2607      H2610   1.046       .  S
N2607      H2611   1.046       .  S
C2612      C2613   1.407       .  A
C2612      C2617   1.401       .  A
C2612      H2619   1.084       .  S
C2613      C2614   1.419       .  A
C2614      C2615   1.410       .  A
C2614      N2621   1.437       .  S
C2615      C2616   1.402       .  A
C2616      C2617   1.414       .  A
C2616      C2868   1.464   1_554  S
C2617      N2993   1.438   1_554  S
N2618      C2992   1.438       .  S
N2618      H2622   1.046       .  S
N2618      H2623   1.044       .  S
N2621      H2624   1.045       .  S
C2626      C2627   1.541       .  S
C2626      C2632   1.567       .  S
C2626      C2630   1.543       .  S
C2626      C2988   1.542       .  S
C2627      H2634   1.086       .  S
C2627      C2628   1.338       .  D
C2628      C2629   1.567       .  S
C2628      N2823   1.452       .  S
C2629      C2633   1.580       .  S
C2629      C2631   1.576       .  S
C2629      H2635   1.109       .  S
C2630      H2636   1.071       .  S
C2630      C2631   1.357       .  D
C2631      C2674   1.560       .  S
C2632      H2637   1.084       .  S
C2632      C2633   1.378       .  D
C2633      C2638   1.582       .  S
C2638      C2640   1.511       .  S
C2638      C2642   1.522       .  S
C2638      C2641   1.584       .  S
C2639      C2668   1.581       .  S
C2639      C2643   1.517       .  S
C2639      C2645   1.510       .  S
C2639      C2644   1.586       .  S
C2640      C2648   1.371       .  A
C2640      C2643   1.401       .  A
C2641      C2644   1.436       .  A
C2642      C2656   1.373       .  A
C2642      C2645   1.401       .  A
C2643      C2646   1.372       .  A
C2645      C2653   1.372       .  A
C2646      N2647   1.344       .  A
C2646      H2659   1.073       .  S
N2647      C2792   1.424       .  S
N2647      C2648   1.338       .  A
C2648      H2649   1.081       .  S
C2650      N2651   1.369       .  A
C2650      H2660   1.081       .  S
N2651      C2652   1.370       .  A
N2651      N2733   1.430       .  S
C2652      H2658   1.082       .  S
C2653      N2654   1.339       .  A
C2653      H2655   1.081       .  S
N2654      C2710   1.427       .  S
N2654      C2656   1.345       .  A
C2656      H2657   1.073       .  S
C2661      C2662   1.539       .  S
C2661      C2667   1.568       .  S
C2661      C2665   1.541       .  S
C2661      C2977   1.528       .  S
C2662      H2669   1.087       .  S
C2662      C2663   1.344       .  D
C2663      C2664   1.560       .  S
C2663      N2846   1.453       .  S
C2664      C2668   1.591       .  S
C2664      C2666   1.581       .  S
C2664      H2670   1.110       .  S
C2665      H2671   1.080       .  S
C2665      C2666   1.351       .  D
C2666      C2768   1.559       .  S
C2667      H2672   1.077       .  S
C2667      C2668   1.373       .  D
C2673      C2760   1.509       .  S
C2673      C2675   1.503       .  S
C2673      C2677   1.535       .  S
C2673      C2676   1.516       .  S
C2674      C2678   1.545       .  S
C2674      C2680   1.519       .  S
C2674      C2679   1.608       .  S
C2675      C2683   1.368       .  A
C2675      C2678   1.360       .  A
C2676      C2687   1.364       .  A
C2676      C2679   1.419       .  A
C2677      C2691   1.375       .  A
C2677      C2680   1.403       .  A
C2678      C2681   1.377       .  A
C2679      C2685   1.412       .  A
C2680      C2688   1.376       .  A
C2681      N2682   1.358       .  A
C2681      H2694   1.061       .  S
N2682      C2701   1.452       .  S
N2682      C2683   1.351       .  A
C2683      H2684   1.077       .  S
N2686      N2780   1.413       .  S
C2688      N2689   1.350       .  A
C2688      H2690   1.077       .  S
N2689      C2713   1.427       .  S
N2689      C2691   1.344       .  A
C2691      H2692   1.080       .  S
C2696      C2697   1.560       .  S
C2696      C2702   1.543       .  S
C2696      C2700   1.544       .  S
C2696      C2960   1.532       .  S
C2697      H2704   1.079       .  S
C2697      C2698   1.367       .  D
C2698      C2699   1.586       .  S
C2698      C2721   1.567       .  S
C2699      C2703   1.586       .  S
C2699      C2701   1.538       .  S
C2699      H2705   1.110       .  S
C2700      H2706   1.086       .  S
C2700      C2701   1.359       .  D
C2702      H2707   1.083       .  S
C2702      C2703   1.353       .  D
C2703      C2815   1.565       .  S
C2708      C2709   1.555       .  S
C2708      C2714   1.554       .  S
C2708      C2712   1.553       .  S
C2708      C2949   1.533       .  S
C2709      H2716   1.081       .  S
C2709      C2710   1.356       .  D
C2710      C2711   1.520       .  S
C2711      C2715   1.536       .  S
C2711      C2713   1.517       .  S
C2711      H2717   1.112       .  S
C2712      H2718   1.086       .  S
C2712      C2713   1.353       .  D
C2714      H2719   1.076       .  S
C2714      C2715   1.376       .  D
C2715      C2837   1.537       .  S
C2720      C2804   1.573       .  S
C2720      C2722   1.519       .  S
C2720      C2724   1.521       .  S
C2720      C2723   1.588       .  S
C2721      C2725   1.512       .  S
C2721      C2727   1.523       .  S
C2721      C2726   1.579       .  S
C2722      C2730   1.382       .  A
C2722      C2725   1.395       .  A
C2723      C2734   1.395       .  A
C2723      C2726   1.433       .  A
C2724      C2738   1.379       .  A
C2724      C2727   1.399       .  A
C2725      C2728   1.375       .  A
C2726      C2732   1.391       .  A
C2727      C2735   1.384       .  A
C2728      N2729   1.343       .  A
C2728      H2741   1.075       .  S
N2729      C2750   1.430       .  S
N2729      C2730   1.346       .  A
C2730      H2731   1.081       .  S
C2732      N2733   1.368       .  A
C2732      H2742   1.081       .  S
N2733      C2734   1.370       .  A
C2734      H2740   1.081       .  S
C2735      N2736   1.346       .  A
C2735      H2737   1.080       .  S
N2736      C2762   1.436       .  S
N2736      C2738   1.348       .  A
C2738      H2739   1.073       .  S
C2743      C2744   1.545       .  S
C2743      C2749   1.562       .  S
C2743      C2747   1.547       .  S
C2743      C2932   1.520       .  S
C2744      H2751   1.087       .  S
C2744      C2745   1.343       .  D
C2745      C2746   1.514       .  S
C2745      N2830   1.419       .  S
C2746      C2750   1.518       .  S
C2746      C2748   1.532       .  S
C2746      H2752   1.112       .  S
C2747      H2753   1.077       .  S
C2747      C2748   1.370       .  D
C2748      C2767   1.517       .  S
C2749      H2754   1.081       .  S
C2749      C2750   1.363       .  D
C2755      C2756   1.549       .  S
C2755      C2761   1.567       .  S
C2755      C2759   1.539       .  S
C2755      C2921   1.519       .  S
C2756      H2763   1.087       .  S
C2756      C2757   1.346       .  D
C2757      C2758   1.516       .  S
C2757      N2853   1.426       .  S
C2758      C2762   1.519       .  S
C2758      C2760   1.540       .  S
C2758      H2764   1.112       .  S
C2759      H2765   1.078       .  S
C2759      C2760   1.357       .  D
C2761      H2766   1.082       .  S
C2761      C2762   1.372       .  D
C2767      C2769   1.517       .  S
C2767      C2771   1.522       .  S
C2767      C2770   1.534       .  S
C2768      C2772   1.535       .  S
C2768      C2774   1.533       .  S
C2768      C2773   1.585       .  S
C2769      C2777   1.378       .  A
C2769      C2772   1.366       .  A
C2770      C2781   1.367       .  A
C2770      C2773   1.417       .  A
C2771      C2785   1.373       .  A
C2771      C2774   1.402       .  A
C2772      C2775   1.369       .  A
C2773      C2779   1.405       .  A
C2774      C2782   1.379       .  A
C2775      N2776   1.367       .  A
C2775      H2788   1.069       .  S
N2776      C2807   1.470       .  S
N2776      C2777   1.354       .  A
C2777      H2778   1.071       .  S
C2779      N2780   1.369       .  A
C2779      H2789   1.079       .  S
N2780      C2781   1.350       .  A
C2781      H2787   1.077       .  S
C2782      N2783   1.352       .  A
C2782      H2784   1.076       .  S
N2783      C2795   1.430       .  S
N2783      C2785   1.342       .  A
C2785      H2786   1.079       .  S
C2790      C2791   1.555       .  S
C2790      C2796   1.567       .  S
C2790      C2794   1.553       .  S
C2790      C2907   1.543       .  S
C2791      H2798   1.079       .  S
C2791      C2792   1.351       .  D
C2792      C2793   1.515       .  S
C2793      C2797   1.540       .  S
C2793      C2795   1.518       .  S
C2793      H2799   1.112       .  S
C2794      H2800   1.086       .  S
C2794      C2795   1.355       .  D
C2796      H2801   1.081       .  S
C2796      C2797   1.379       .  D
C2797      C2814   1.543       .  S
C2802      C2803   1.548       .  S
C2802      C2808   1.567       .  S
C2802      C2806   1.551       .  S
C2802      C2890   1.552       .  S
C2803      H2810   1.082       .  S
C2803      C2804   1.357       .  D
C2804      C2805   1.589       .  S
C2805      C2809   1.590       .  S
C2805      C2807   1.567       .  S
C2805      H2811   1.110       .  S
C2806      H2812   1.086       .  S
C2806      C2807   1.357       .  D
C2808      H2813   1.077       .  S
C2808      C2809   1.372       .  D
C2809      C2838   1.587       .  S
C2814      C2816   1.517       .  S
C2814      C2818   1.519       .  S
C2814      C2817   1.542       .  S
C2815      C2819   1.532       .  S
C2815      C2821   1.521       .  S
C2815      C2820   1.584       .  S
C2816      C2824   1.366       .  A
C2816      C2819   1.376       .  A
C2817      C2820   1.425       .  A
C2818      C2832   1.370       .  A
C2818      C2821   1.403       .  A
C2819      C2822   1.376       .  A
C2821      C2829   1.369       .  A
C2822      N2823   1.362       .  A
C2822      H2835   1.079       .  S
N2823      C2824   1.352       .  A
C2824      H2825   1.068       .  S
C2826      N2827   1.369       .  A
C2826      H2836   1.080       .  S
N2827      C2828   1.356       .  A
N2827      N2850   1.412       .  S
C2828      H2834   1.080       .  S
C2829      N2830   1.344       .  A
C2829      H2831   1.075       .  S
N2830      C2832   1.341       .  A
C2832      H2833   1.079       .  S
C2837      C2839   1.509       .  S
C2837      C2841   1.517       .  S
C2837      C2840   1.533       .  S
C2838      C2842   1.531       .  S
C2838      C2844   1.539       .  S
C2838      C2843   1.587       .  S
C2839      C2847   1.367       .  A
C2839      C2842   1.374       .  A
C2840      C2851   1.364       .  A
C2840      C2843   1.424       .  A
C2841      C2855   1.365       .  A
C2841      C2844   1.406       .  A
C2842      C2845   1.359       .  A
C2843      C2849   1.404       .  A
C2844      C2852   1.375       .  A
C2845      N2846   1.362       .  A
C2845      H2858   1.065       .  S
N2846      C2847   1.349       .  A
C2847      H2848   1.070       .  S
C2849      N2850   1.370       .  A
C2849      H2859   1.080       .  S
N2850      C2851   1.346       .  A
C2851      H2857   1.076       .  S
C2852      N2853   1.355       .  A
C2852      H2854   1.076       .  S
N2853      C2855   1.342       .  A
C2855      H2856   1.078       .  S
O2861      C2869   1.244       .  A
O2862      C2870   1.256       .  A
O2863      C2871   1.258       .  A
O2866      C2869   1.256       .  A
O2867     Co2882   2.050       .  S
C2869      C2918   1.469       .  S
C2870      C2946   1.485       .  S
O2873     Co2881   2.033       .  S
O2874      C2887   1.250       .  A
O2874     Co2882   1.957       .  S
O2875      C2888   1.263       .  A
O2875     Co2883   1.981       .  S
O2876      C2888   1.278       .  A
O2876     Co2881   2.038       .  S
O2878      C2885   1.272       .  A
O2878     Co2883   1.946       .  S
O2879      C2886   1.272       .  A
O2879     Co2882   1.904       .  S
Co2880     O2884   2.116       .  S
Co2881     O2884   2.088       .  S
Co2883     O2884   2.019       .  S
C2886      C2974   1.464       .  S
C2888      C2893   1.497       .  S
C2889      C2890   1.414       .  A
C2889      C2894   1.410       .  A
C2889      H2896   1.077       .  S
C2890      C2891   1.434       .  A
C2891      C2892   1.400       .  A
C2891      N2898   1.436       .  S
C2892      C2893   1.402       .  A
C2892      H2897   1.084       .  S
C2893      C2894   1.412       .  A
C2894      N2895   1.432       .  S
N2895      H2899   1.046       .  S
N2895      H2900   1.045       .  S
N2898      H2901   1.041       .  S
N2898      H2902   1.042       .  S
C2903      C2904   1.402       .  A
C2903      C2908   1.407       .  A
C2903      H2910   1.084       .  S
C2904      C2905   1.407       .  A
C2905      C2906   1.403       .  A
C2906      C2907   1.418       .  A
C2906      H2911   1.075       .  S
C2907      C2908   1.417       .  A
C2908      N2909   1.438       .  S
N2909      H2913   1.046       .  S
N2909      H2914   1.045       .  S
C2917      C2918   1.393       .  A
C2917      C2922   1.401       .  A
C2917      H2924   1.084       .  S
C2918      C2919   1.414       .  A
C2919      C2920   1.396       .  A
C2919      N2926   1.433       .  S
C2920      C2921   1.400       .  A
C2920      H2925   1.079       .  S
C2921      C2922   1.427       .  A
C2922      N2923   1.438       .  S
N2923      H2927   1.046       .  S
N2923      H2928   1.045       .  S
N2926      H2929   1.046       .  S
N2926      H2930   1.046       .  S
C2931      C2932   1.401       .  A
C2931      C2936   1.399       .  A
C2931      H2938   1.077       .  S
C2932      C2933   1.417       .  A
C2933      C2934   1.400       .  A
C2933      N2940   1.433       .  S
C2934      C2935   1.399       .  A
C2935      C2936   1.419       .  A
C2936      N2937   1.439       .  S
N2937      H2941   1.045       .  S
N2937      H2942   1.046       .  S
N2940      H2943   1.046       .  S
C2945      C2946   1.407       .  A
C2945      C2950   1.403       .  A
C2946      C2947   1.413       .  A
C2947      C2948   1.399       .  A
C2948      C2949   1.410       .  A
C2948      H2953   1.078       .  S
C2949      C2950   1.415       .  A
C2950      N2951   1.438       .  S
N2951      H2955   1.046       .  S
N2951      H2956   1.045       .  S
N2954      H2957   1.046       .  S
N2954      H2958   1.043       .  S
C2959      C2960   1.408       .  A
C2959      C2964   1.407       .  A
C2959      H2966   1.077       .  S
C2960      C2961   1.422       .  A
C2961      C2962   1.399       .  A
C2961      N2968   1.434       .  S
C2962      C2963   1.395       .  A
C2962      H2967   1.084       .  S
C2963      C2964   1.413       .  A
C2964      N2965   1.438       .  S
N2965      H2969   1.046       .  S
N2968      H2971   1.046       .  S
N2968      H2972   1.046       .  S
C2973      C2974   1.408       .  A
C2973      C2978   1.400       .  A
C2973      H2980   1.084       .  S
C2974      C2975   1.395       .  A
C2975      C2976   1.398       .  A
C2975      N2982   1.438       .  S
C2976      C2977   1.422       .  A
C2976      H2981   1.084       .  S
C2977      C2978   1.410       .  A
C2978      N2979   1.429       .  S
N2979      H2983   1.046       .  S
N2979      H2984   1.046       .  S
N2982      H2985   1.046       .  S
N2982      H2986   1.046       .  S
C2987      C2988   1.407       .  A
C2987      C2992   1.401       .  A
C2987      H2994   1.084       .  S
C2988      C2989   1.419       .  A
C2989      C2990   1.410       .  A
C2989      N2996   1.437       .  S
C2990      C2991   1.402       .  A
C2991      C2992   1.414       .  A
N2993      H2997   1.046       .  S
N2993      H2998   1.044       .  S
N2996      H2999   1.045       .  S
