geometry optimzed in LAMMPS
_audit_creation_date              2020-12-01 
_audit_creation_method            'lammps2cif' 
_symmetry_space_group_name_H-M    'P1' 
_symmetry_Int_Tables_number       1 
_symmetry_cell_setting            triclinic 
loop_ 
_symmetry_equiv_pos_as_xyz 
  x,y,z 
_cell_length_a                    47.00186666 
_cell_length_b                    47.11103190929024 
_cell_length_c                    24.890768177056973 
_cell_angle_alpha                 89.99699347095824 
_cell_angle_beta                  89.99664076165398 
_cell_angle_gamma                 90.0061261358655 
loop_ 
_atom_site_label 
_atom_site_type_symbol 
_atom_site_fract_x 
_atom_site_fract_y 
_atom_site_fract_z 
_atom_site_charge 
N1          N  0.21472938  0.30330742  0.44348372    -0.05800
N2          N  0.20937606  0.32264822  0.40637161    -0.57900
N3          N  0.19460308  0.28333399  0.56661076    -0.05500
N4          N  0.17531880  0.28866113  0.60390590    -0.60000
N5          N  0.21454749  0.30296625  0.56700691    -0.05100
N6          N  0.20924578  0.32203715  0.60463901    -0.57900
N7          N  0.19482992  0.28364027  0.44331332    -0.04800
N8          N  0.17555779  0.28916587  0.40612549    -0.60400
C9          C  0.18507460  0.31336500  0.38322441     0.96400
C10         C  0.18491114  0.31265709  0.62749669     0.96200
N11         N  0.21383700  0.19616934  0.56558905    -0.06000
N12         N  0.20841409  0.17711448  0.60316178    -0.58500
N13         N  0.19472208  0.21670813  0.44224702    -0.04100
N14         N  0.17588016  0.21205356  0.40387835    -0.59700
N15         N  0.21432486  0.19674773  0.44218185    -0.06000
N16         N  0.20920667  0.17807768  0.40379576    -0.58800
N17         N  0.19425299  0.21614707  0.56571986    -0.03700
N18         N  0.17510777  0.21111526  0.60338438    -0.59800
Mn19       Mn  0.19386349  0.24992962  0.50451524     1.18400
C20         C  0.18440014  0.18690194  0.62654469     0.98500
C21         C  0.18537541  0.18808798  0.38009317     0.99100
N22         N  0.28198557  0.30246938  0.56730076    -0.06000
N23         N  0.28740286  0.32146889  0.60497300    -0.62300
N24         N  0.30194232  0.28290860  0.44389637    -0.04800
N25         N  0.32118469  0.28811641  0.40644951    -0.63000
N26         N  0.28224775  0.30279293  0.44392662    -0.05500
N27         N  0.28768852  0.32192474  0.40649707    -0.62600
N28         N  0.30163421  0.28255081  0.56723169    -0.04400
N29         N  0.32080865  0.28757456  0.60485460    -0.63300
Mn30       Mn  0.24839462  0.30364565  0.50542440     1.10700
C31         C  0.31146886  0.31171553  0.62822703     0.99700
C32         C  0.31182997  0.31232694  0.38329335     0.99800
N33         N  0.28151994  0.19602372  0.44297892    -0.05500
N34         N  0.28664668  0.17709315  0.40502553    -0.60900
N35         N  0.30095234  0.21552947  0.56693360    -0.04900
N36         N  0.31959197  0.21052085  0.60549132    -0.57700
N37         N  0.28111649  0.19579419  0.56648707    -0.06200
N38         N  0.28588685  0.17690608  0.60467561    -0.60500
N39         N  0.30142170  0.21568810  0.44329638    -0.05200
N40         N  0.32050210  0.21054437  0.40555698    -0.57700
Mn41       Mn  0.24769534  0.19535524  0.50430958     1.20200
Mn42       Mn  0.30226388  0.24913617  0.50531974     1.10100
Cl43       Cl  0.24806390  0.24952351  0.50492276    -0.85600
C44         C  0.31082866  0.18661680  0.38185115     0.96700
C45         C  0.30974773  0.18656707  0.62881084     0.96500
C46         C  0.38863556  0.39073383  0.79966891     0.86800
C47         C  0.37112117  0.40943944  0.83819389    -0.53400
C48         C  0.38741632  0.42650789  0.87002889     0.09700
C49         C  0.41975074  0.42315802  0.85986105     0.20700
C50         C  0.40737478  0.41150473  0.76748896    -0.54200
C51         C  0.42377125  0.42862016  0.79902405     0.09800
C52         C  0.40938247  0.37413208  0.83578766    -0.53700
C53         C  0.42584813  0.39113047  0.86740562     0.10400
H54         H  0.34802675  0.40958750  0.83944295     0.14900
H55         H  0.43311055  0.43704015  0.88567839     0.00700
H56         H  0.40816798  0.41210350  0.72389914     0.15200
H57         H  0.41061121  0.35112077  0.83693068     0.15000
C58         C  0.38801254  0.10875300  0.79977099     0.86800
C59         C  0.40727685  0.08847247  0.76759046    -0.53400
C60         C  0.42416737  0.07191371  0.79926213     0.09700
C61         C  0.42020631  0.07742976  0.85993275     0.20700
C62         C  0.37115407  0.08957624  0.83843182    -0.54200
C63         C  0.38812300  0.07311122  0.87008126     0.09800
C64         C  0.40831189  0.12604575  0.83574873    -0.53700
C65         C  0.42527508  0.10958324  0.86747905     0.10400
H66         H  0.40775289  0.08750544  0.72400777     0.14900
H67         H  0.43399075  0.06396428  0.88575744     0.00700
H68         H  0.34807899  0.08874221  0.84004745     0.15200
H69         H  0.40890532  0.14908235  0.83666337     0.15000
C70         C  0.10654795  0.39105012  0.79845973     0.86800
C71         C  0.08600318  0.37428048  0.83477329    -0.53400
C72         C  0.06953896  0.39114833  0.86667467     0.09700
C73         C  0.07540700  0.42321395  0.85914524     0.20700
C74         C  0.08756186  0.41175949  0.76657685    -0.54200
C75         C  0.07113860  0.42873971  0.79838834     0.09800
C76         C  0.12404262  0.40980507  0.83684276    -0.53700
C77         C  0.10774961  0.42670952  0.86890878     0.10400
H78         H  0.08492342  0.35126273  0.83586203     0.14900
H79         H  0.06207128  0.43699444  0.88520229     0.00700
H80         H  0.08664390  0.41241503  0.72300197     0.15200
H81         H  0.14714011  0.41009516  0.83787507     0.15000
C82         C  0.10639902  0.10912865  0.79834012     0.86800
C83         C  0.12375917  0.09039170  0.83697187    -0.53400
C84         C  0.10735779  0.07348125  0.86884338     0.09700
C85         C  0.07503879  0.07702524  0.85867349     0.20700
C86         C  0.08750657  0.08841905  0.76624600    -0.54200
C87         C  0.07096355  0.07145172  0.79786346     0.09800
C88         C  0.08578334  0.12595349  0.83431959    -0.53700
C89         C  0.06919873  0.10912353  0.86602591     0.10400
H90         H  0.14685323  0.09007559  0.83822336     0.14900
H91         H  0.06159676  0.06328957  0.88462287     0.00700
H92         H  0.08677224  0.08772518  0.72266183     0.15200
H93         H  0.08478539  0.14897783  0.83543652     0.15000
N94         N  0.45309771  0.49997459  0.78324513    -0.36300
N95         N  0.49712796  0.45687877  0.77607062    -0.56800
N96         N  0.04143295  0.50000067  0.78203129    -0.36300
N97         N  0.49717969  0.04311682  0.77512275    -0.56800
C98         C  0.43833251  0.47695319  0.76684570     0.27300
C99         C  0.43768125  0.02305321  0.76950768     0.27300
C100        C  0.05628428  0.47697660  0.76597166     0.27300
C101        C  0.05633575  0.02305177  0.76551822     0.27300
C102        C  0.47417797  0.43961071  0.77543465     0.35900
C103        C  0.02047154  0.43969436  0.77630423     0.35900
C104        C  0.47422174  0.06036266  0.77505818     0.35900
C105        C  0.02043808  0.06032999  0.77485441     0.35900
C106        C  0.41463194  0.48532648  0.73804206    -0.21600
C107        C  0.41200018  0.01464307  0.74767295    -0.21600
C108        C  0.08015804  0.48535908  0.73768655    -0.21600
C109        C  0.07997352  0.01468485  0.73648184    -0.21600
C110        C  0.48248984  0.41170370  0.77045136    -0.22600
C111        C  0.01213562  0.41173120  0.77351658    -0.22600
C112        C  0.48254646  0.08826394  0.76996719    -0.22600
C113        C  0.01207733  0.08821425  0.76982997    -0.22600
C114        C  0.44576289  0.44870628  0.77801733    -0.18000
C115        C  0.44575777  0.05138578  0.77866639    -0.18000
C116        C  0.04891316  0.05129878  0.77700029    -0.18000
C117        C  0.04894224  0.44876674  0.77776084    -0.18000
H118        H  0.39911197  0.47170381  0.71887955     0.14900
H119        H  0.39524591  0.02824193  0.73264926     0.14900
H120        H  0.09583329  0.47174322  0.71897555     0.14900
H121        H  0.09546172  0.02831750  0.71724501     0.14900
H122        H  0.46875927  0.39360230  0.76430602     0.13200
H123        H  0.02588333  0.39356085  0.76855286     0.13200
H124        H  0.46880270  0.10637672  0.76418202     0.13200
H125        H  0.02577856  0.10631376  0.76344152     0.13200
H126        H  0.47119416  0.49996899  0.80743961     0.26500
H127        H  0.02329924  0.49998893  0.80612158     0.26500
C128        C  0.38902340  0.39086109  0.21095508     0.86800
C129        C  0.40805457  0.41130311  0.24329794    -0.53400
C130        C  0.42487905  0.42803470  0.21180653     0.09700
C131        C  0.42112292  0.42249711  0.15110418     0.20700
C132        C  0.37211705  0.40992034  0.17201480    -0.54200
C133        C  0.38903036  0.42657656  0.14048386     0.09800
C134        C  0.40955437  0.37376372  0.17523456    -0.53700
C135        C  0.42647616  0.39037364  0.14377041     0.10400
H136        H  0.40850443  0.41217020  0.28688711     0.14900
H137        H  0.43490335  0.43604204  0.12540985     0.00700
H138        H  0.34904416  0.41056054  0.17021162     0.15200
H139        H  0.41024511  0.35073048  0.17408265     0.15000
C140        C  0.10685113  0.39134268  0.21096079     0.86800
C141        C  0.12364436  0.41046601  0.17189725    -0.53400
C142        C  0.10661952  0.42675071  0.13985403     0.09700
C143        C  0.07454409  0.42237578  0.15033465     0.20700
C144        C  0.08747365  0.41165063  0.24279838    -0.54200
C145        C  0.07049554  0.42802437  0.21100015     0.09800
C146        C  0.08662287  0.37386679  0.17513749    -0.53700
C147        C  0.06962849  0.39019190  0.14317584     0.10400
H148        H  0.14671315  0.41137060  0.17029588     0.14900
H149        H  0.06068166  0.43568688  0.12437312     0.00700
H150        H  0.08695560  0.41273317  0.28637126     0.15200
H151        H  0.08615131  0.35082587  0.17437788     0.15000
N152        N  0.49802958  0.38135038  0.08836815    -0.36300
N153        N  0.45480899  0.37854613  0.00545473    -0.56800
N154        N  0.49778633  0.38246041  0.92261525    -0.36300
N155        N  0.04103759  0.37854516  0.00500383    -0.56800
C156        C  0.47493709  0.37371773  0.11717254     0.27300
C157        C  0.02110354  0.37373670  0.11684220     0.27300
C158        C  0.47465311  0.37479393  0.89387690     0.27300
C159        C  0.02089253  0.37465210  0.89369929     0.27300
C160        C  0.43757539  0.37798945  0.04885670     0.35900
C161        C  0.43740861  0.37862898  0.96225977     0.35900
C162        C  0.05837619  0.37753643  0.04825945     0.35900
C163        C  0.05830798  0.37835746  0.96162367     0.35900
C164        C  0.48328052  0.36024221  0.16389964    -0.21600
C165        C  0.01267871  0.36052593  0.16377026    -0.21600
C166        C  0.48297314  0.36095866  0.84751218    -0.21600
C167        C  0.01249147  0.35994217  0.84835479    -0.21600
C168        C  0.40960311  0.37544282  0.03323258    -0.22600
C169        C  0.40948587  0.37588557  0.97810235    -0.22600
C170        C  0.08624414  0.37443062  0.03231758    -0.22600
C171        C  0.08621323  0.37499769  0.97715392    -0.22600
C172        C  0.44665417  0.37926861  0.10255422    -0.18000
C173        C  0.04944419  0.37888020  0.10208411    -0.18000
C174        C  0.04921092  0.38028919  0.90802837    -0.18000
C175        C  0.44635827  0.38040084  0.90854985    -0.18000
H176        H  0.46960225  0.35115645  0.19435364     0.14900
H177        H  0.02630534  0.35141373  0.19427751     0.14900
H178        H  0.46928395  0.35169402  0.81727631     0.14900
H179        H  0.02613345  0.35006651  0.81873441     0.14900
H180        H  0.39153925  0.37195328  0.05921511     0.13200
H181        H  0.39130759  0.37279914  0.95222083     0.13200
H182        H  0.10431305  0.37052638  0.05808259     0.13200
H183        H  0.10425562  0.37159229  0.95106046     0.13200
H184        H  0.49804987  0.39305288  0.05291302     0.26500
H185        H  0.49787953  0.39430123  0.95792876     0.26500
C186        C  0.10784028  0.10885938  0.20987146     0.86800
C187        C  0.08737800  0.12600816  0.17405103    -0.53400
C188        C  0.07051508  0.10944612  0.14236937     0.09700
C189        C  0.07589082  0.07733247  0.14957470     0.20700
C190        C  0.08872586  0.08836275  0.24195171    -0.54200
C191        C  0.07194371  0.07171317  0.21019584     0.09800
C192        C  0.12485758  0.08986556  0.17101236    -0.53700
C193        C  0.10801634  0.07327791  0.13924166     0.10400
H194        H  0.08662668  0.14904206  0.17314391     0.14900
H195        H  0.06218459  0.06381848  0.12369167     0.00700
H196        H  0.08814733  0.08744497  0.28553252     0.15200
H197        H  0.14793754  0.08920729  0.16944520     0.15000
N198        N  0.45400611  0.49991166  0.22839887    -0.36300
N199        N  0.49791214  0.45676540  0.23555827    -0.56800
N200        N  0.04105212  0.49992520  0.22864950    -0.36300
N201        N  0.49902866  0.04302922  0.23322405    -0.56800
C202        C  0.43847380  0.47684329  0.24182237     0.27300
C203        C  0.44011160  0.02296333  0.24287015     0.27300
C204        C  0.05684299  0.47685082  0.24090174     0.27300
C205        C  0.05800816  0.02299312  0.24022158     0.27300
C206        C  0.47495631  0.43951361  0.23602913     0.35900
C207        C  0.02034515  0.43945023  0.23567136     0.35900
C208        C  0.47609018  0.06030772  0.23348938     0.35900
C209        C  0.02166054  0.06039236  0.23345652     0.35900
C210        C  0.41316509  0.48524454  0.26518340    -0.21600
C211        C  0.41593671  0.01456628  0.27020780    -0.21600
C212        C  0.08256531  0.48527701  0.26254993    -0.21600
C213        C  0.08336034  0.01457811  0.26334259    -0.21600
C214        C  0.48331441  0.41160095  0.24083240    -0.22600
C215        C  0.01201078  0.41155941  0.24125637    -0.22600
C216        C  0.48446012  0.08825591  0.23722615    -0.22600
C217        C  0.01331106  0.08835127  0.23710920    -0.22600
C218        C  0.44648623  0.44850135  0.23259096    -0.18000
C219        C  0.44762743  0.05123886  0.23178081    -0.18000
C220        C  0.05012912  0.05133800  0.23060936    -0.18000
C221        C  0.04880538  0.44849545  0.23163638    -0.18000
H222        H  0.39668972  0.47163769  0.28127471     0.14900
H223        H  0.40012077  0.02817509  0.28850757     0.14900
H224        H  0.09936323  0.47168901  0.27743317     0.14900
H225        H  0.09991303  0.02817452  0.27915852     0.14900
H226        H  0.46960748  0.39343995  0.24646553     0.13200
H227        H  0.02574640  0.39344618  0.24717806     0.13200
H228        H  0.47076991  0.10642190  0.24291333     0.13200
H229        H  0.02704419  0.10654270  0.24204009     0.13200
H230        H  0.47323506  0.49991633  0.20776902     0.26500
H231        H  0.02151014  0.49992316  0.20917173     0.26500
N232        N  0.11453042  0.49997943  0.08595927    -0.36300
N233        N  0.11708198  0.04430404  0.00351348    -0.56800
N234        N  0.12209750  0.50000921  0.92160253    -0.36300
N235        N  0.11676681  0.45578165  0.00357974    -0.56800
C236        C  0.11975946  0.02308175  0.11756146     0.27300
C237        C  0.11825654  0.47687679  0.11735483     0.27300
C238        C  0.11975493  0.02314681  0.88944762     0.27300
C239        C  0.12040948  0.47689380  0.88964009     0.27300
C240        C  0.12435180  0.05965040  0.04709325     0.35900
C241        C  0.12483190  0.05960286  0.96012237     0.35900
C242        C  0.12310040  0.44018513  0.04736360     0.35900
C243        C  0.12475445  0.44041110  0.96043855     0.35900
C244        C  0.12561879  0.01460071  0.16948851    -0.21600
C245        C  0.12489737  0.48533652  0.16893270    -0.21600
C246        C  0.11923686  0.01464618  0.83648044    -0.21600
C247        C  0.12015099  0.48540312  0.83665503    -0.21600
C248        C  0.13776496  0.08441267  0.03151443    -0.22600
C249        C  0.13798045  0.08443233  0.97603830    -0.22600
C250        C  0.13627889  0.41523110  0.03220183    -0.22600
C251        C  0.13722597  0.41532157  0.97675061    -0.22600
C252        C  0.11865580  0.05159787  0.10051143    -0.18000
C253        C  0.11702049  0.44834411  0.10058688    -0.18000
C254        C  0.11950230  0.44834514  0.90682471    -0.18000
C255        C  0.11901691  0.05171558  0.90667540    -0.18000
H256        H  0.13093207  0.02818061  0.20303703     0.14900
H257        H  0.13071916  0.47176120  0.20218850     0.14900
H258        H  0.12062584  0.02833373  0.80182191     0.14900
H259        H  0.12163087  0.47173798  0.80197372     0.14900
H260        H  0.14679658  0.10049040  0.05745555     0.13200
H261        H  0.14707239  0.10058990  0.95034555     0.13200
H262        H  0.14478293  0.39899851  0.05841749     0.13200
H263        H  0.14634328  0.39905955  0.95133121     0.13200
H264        H  0.10846384  0.49998797  0.04605770     0.26500
H265        H  0.12362339  0.49999960  0.96289335     0.26500
N266        N  0.49867378  0.11776488  0.08731061    -0.36300
N267        N  0.04123323  0.12162091  0.00465740    -0.56800
N268        N  0.49726136  0.11859024  0.92136257    -0.36300
N269        N  0.45483252  0.12170568  0.00501191    -0.56800
C270        C  0.02191380  0.12618241  0.11647029     0.27300
C271        C  0.47578092  0.12595973  0.11619440     0.27300
C272        C  0.02059432  0.12542519  0.89325312     0.27300
C273        C  0.47400082  0.12613904  0.89290560     0.27300
C274        C  0.05881662  0.12188820  0.04759786     0.35900
C275        C  0.05830972  0.12174084  0.96099840     0.35900
C276        C  0.43790217  0.12251462  0.04882086     0.35900
C277        C  0.43719625  0.12260326  0.96216272     0.35900
C278        C  0.01381515  0.14062635  0.16230616    -0.21600
C279        C  0.48451916  0.14008690  0.16198865    -0.21600
C280        C  0.01191359  0.13895365  0.84678947    -0.21600
C281        C  0.48207268  0.13965910  0.84607260    -0.21600
C282        C  0.08667167  0.12444264  0.03129779    -0.22600
C283        C  0.08636382  0.12432644  0.97616989    -0.22600
C284        C  0.40992952  0.12618126  0.03387768    -0.22600
C285        C  0.40949852  0.12628433  0.97869388    -0.22600
C286        C  0.05011495  0.12055706  0.10148619    -0.18000
C287        C  0.44732446  0.12054110  0.10224914    -0.18000
C288        C  0.44578177  0.12078639  0.90819846    -0.18000
C289        C  0.04900541  0.12007591  0.90745881    -0.18000
H290        H  0.02765185  0.15029353  0.19185455     0.14900
H291        H  0.47108853  0.14971269  0.19224069     0.14900
H292        H  0.02537164  0.14825886  0.81622195     0.14900
H293        H  0.46822005  0.14874700  0.81590457     0.14900
H294        H  0.10492893  0.12777052  0.05686367     0.13200
H295        H  0.10437492  0.12744005  0.94987694     0.13200
H296        H  0.39209474  0.12995258  0.06031140     0.13200
H297        H  0.39130311  0.13026269  0.95328894     0.13200
H298        H  0.49838083  0.10567263  0.05229540     0.26500
H299        H  0.49754098  0.10694224  0.95688296     0.26500
C300        C  0.39002499  0.10891118  0.21153162     0.86800
C301        C  0.37274527  0.09019941  0.17268797    -0.53400
C302        C  0.38922029  0.07344508  0.14065103     0.09700
C303        C  0.42150343  0.07719778  0.15067174     0.20700
C304        C  0.40901227  0.08817669  0.24329407    -0.54200
C305        C  0.42558927  0.07142799  0.21135477     0.09800
C306        C  0.41057456  0.12597432  0.17573085    -0.53700
C307        C  0.42720403  0.10935594  0.14368631     0.10400
H308        H  0.34965361  0.08975820  0.17147044     0.14900
H309        H  0.43499886  0.06360900  0.12454841     0.00700
H310        H  0.40975389  0.08727063  0.28686558     0.15200
H311        H  0.41148834  0.14900468  0.17497840     0.15000
N312        N  0.37611231  0.99993623  0.08777752    -0.36300
N313        N  0.37889019  0.04412310  0.00574674    -0.54600
N314        N  0.38029178  0.99996088  0.92310474    -0.36300
N315        N  0.37890825  0.45553841  0.00465418    -0.56800
C316        C  0.37675431  0.02310416  0.11974522     0.27300
C317        C  0.37729005  0.47680057  0.11853203     0.27300
C318        C  0.37625935  0.02305658  0.89193110     0.27300
C319        C  0.37487320  0.47681091  0.89104311     0.27300
C320        C  0.37198930  0.05974892  0.04918979     0.35900
C321        C  0.37216635  0.05973430  0.96226850     0.35900
C322        C  0.37224984  0.44013257  0.04849884     0.35900
C323        C  0.37053573  0.44027991  0.96164671     0.35900
C324        C  0.37565903  0.01456856  0.17267219    -0.21600
C325        C  0.37146555  0.48526800  0.17045871    -0.21600
C326        C  0.36923640  0.01461180  0.84049647    -0.21600
C327        C  0.37554992  0.48534544  0.83814181    -0.21600
C328        C  0.35973891  0.08504545  0.03336943    -0.22600
C329        C  0.35977381  0.08499394  0.97790957    -0.22600
C330        C  0.35861114  0.41538584  0.03351504    -0.22600
C331        C  0.35761810  0.41542749  0.97808129    -0.22600
C332        C  0.37772953  0.05170769  0.10258836    -0.18000
C333        C  0.37845034  0.44826019  0.10163635    -0.18000
C334        C  0.37569290  0.44819489  0.90803593    -0.18000
C335        C  0.37760974  0.05153934  0.90891258    -0.18000
H336        H  0.37326604  0.02821753  0.20721663     0.14900
H337        H  0.36620397  0.47167401  0.20401879     0.14900
H338        H  0.36322267  0.02819666  0.80736717     0.14900
H339        H  0.37425282  0.47166893  0.80347153     0.14900
H340        H  0.35124376  0.10148935  0.05912076     0.13200
H341        H  0.35120717  0.10134122  0.95201738     0.13200
H342        H  0.34987771  0.39931139  0.05982591     0.13200
H343        H  0.34819257  0.39929286  0.95276733     0.13200
H344        H  0.37607504  0.99994335  0.04652265     0.26500
H345        H  0.38676021  0.99995592  0.96271254     0.26500
C346        C  0.32709867  0.32702037  0.66856085    -0.18200
C347        C  0.34071042  0.34070122  0.70049192     0.05900
C348        C  0.35697652  0.35751227  0.73614050     0.07700
C349        C  0.37108972  0.37234027  0.76535788    -0.19000
C350        C  0.32482694  0.17129135  0.66984496    -0.18200
C351        C  0.33840209  0.15765685  0.70184339     0.05900
C352        C  0.35507882  0.14100081  0.73696442     0.07700
C353        C  0.36978140  0.12650431  0.76566347    -0.19000
C354        C  0.16934490  0.32812359  0.66780916    -0.18200
C355        C  0.15557633  0.34172920  0.69967872     0.05900
C356        C  0.13884707  0.35827910  0.73509604     0.07700
C357        C  0.12429057  0.37284782  0.76405782    -0.19000
C358        C  0.32725965  0.32764420  0.34262523    -0.18200
C359        C  0.34061383  0.34133920  0.31028802     0.05900
C360        C  0.35673592  0.35812694  0.27431221     0.07700
C361        C  0.37097591  0.37283850  0.24507422    -0.19000
C362        C  0.16894175  0.17177276  0.66730525    -0.18200
C363        C  0.15530078  0.15833634  0.69953374     0.05900
C364        C  0.13872087  0.14185729  0.73516994     0.07700
C365        C  0.12421646  0.12729292  0.76414732    -0.19000
C366        C  0.12500139  0.37376035  0.24583425    -0.18200
C367        C  0.13933297  0.35945521  0.27569125     0.05900
C368        C  0.15571618  0.34290105  0.31171836     0.07700
C369        C  0.16940195  0.32912880  0.34347326    -0.19000
C370        C  0.32633131  0.17122169  0.34144850    -0.18200
C371        C  0.34025010  0.15765173  0.30981402     0.05900
C372        C  0.35728078  0.14121631  0.27480691     0.07700
C373        C  0.37207798  0.12683147  0.24600187    -0.19000
C374        C  0.16985933  0.17291870  0.33947961    -0.18200
C375        C  0.15629341  0.15903692  0.30782011     0.05900
C376        C  0.14003423  0.14185023  0.27284251     0.07700
C377        C  0.12579779  0.12688817  0.24410056    -0.19000
N378        N  0.21436609  0.80321109  0.44213245    -0.05800
N379        N  0.20926265  0.82187687  0.40372744    -0.57900
N380        N  0.19427423  0.78384848  0.56568723    -0.05500
N381        N  0.17512010  0.78890910  0.60332023    -0.60000
N382        N  0.21387445  0.80381402  0.56554511    -0.05100
N383        N  0.20845437  0.82288914  0.60307917    -0.57900
N384        N  0.19475114  0.78325877  0.44220812    -0.04800
N385        N  0.17591659  0.78791297  0.40382673    -0.60400
C386        C  0.18542730  0.81187093  0.38002283     0.96400
C387        C  0.18442353  0.81312717  0.62645180     0.96200
N388        N  0.21452637  0.69701303  0.56704137    -0.06000
N389        N  0.20921871  0.67795889  0.60470479    -0.58500
N390        N  0.19481473  0.71632440  0.44334556    -0.04100
N391        N  0.17553062  0.71079470  0.40618112    -0.59700
N392        N  0.21470046  0.69664728  0.44352841    -0.06000
N393        N  0.20932588  0.67729660  0.40644973    -0.58800
N394        N  0.19459930  0.71665923  0.56663802    -0.03700
N395        N  0.17532168  0.71135832  0.60396079    -0.59800
Mn396      Mn  0.19387186  0.75004909  0.50451216     1.18400
C397        C  0.18489996  0.68736391  0.62757331     0.98500
C398        C  0.18502678  0.68658330  0.38330899     0.99100
N399        N  0.28115417  0.80411921  0.56644360    -0.06000
N400        N  0.28593337  0.82300959  0.60461945    -0.62300
N401        N  0.30144622  0.78419110  0.44327817    -0.04800
N402        N  0.32051621  0.78930302  0.40550312    -0.63000
N403        N  0.28155970  0.80386684  0.44294533    -0.05500
N404        N  0.28668637  0.82277340  0.40494642    -0.62600
N405        N  0.30097476  0.78437220  0.56691276    -0.04400
N406        N  0.31961269  0.78937623  0.60547618    -0.63300
Mn407      Mn  0.24773816  0.80458142  0.50426753     1.10700
C408        C  0.30978227  0.81333870  0.62877173     0.99700
C409        C  0.31085129  0.81322299  0.38176262     0.99800
N410        N  0.28222258  0.69710133  0.44395056    -0.05500
N411        N  0.28765589  0.67795351  0.40654992    -0.60900
N412        N  0.30162586  0.71734567  0.56725404    -0.04900
N413        N  0.32080218  0.71230699  0.60486631    -0.57700
N414        N  0.28196348  0.69743698  0.56732696    -0.06200
N415        N  0.28737306  0.67842855  0.60499031    -0.60500
N416        N  0.30193605  0.71697106  0.44391451    -0.05200
N417        N  0.32118403  0.71173674  0.40649201    -0.57700
Mn418      Mn  0.24836714  0.69628946  0.50545526     1.20200
Mn419      Mn  0.30227276  0.75075549  0.50532227     1.10100
Cl420      Cl  0.24807218  0.75041209  0.50492026    -0.85600
C421        C  0.31181356  0.68752543  0.38335466     0.96700
C422        C  0.31144945  0.68816669  0.62823674     0.96500
C423        C  0.38801256  0.89120610  0.79967884     0.86800
C424        C  0.37115189  0.91037000  0.83834726    -0.53400
C425        C  0.38812006  0.92683004  0.87001027     0.09700
C426        C  0.42020387  0.92251885  0.85986653     0.20700
C427        C  0.40727910  0.91149710  0.76751426    -0.54200
C428        C  0.42416833  0.92805143  0.79919989     0.09800
C429        C  0.40830748  0.87390718  0.83564716    -0.53700
C430        C  0.42526924  0.89036360  0.86739157     0.10400
H431        H  0.34807667  0.91119835  0.83996052     0.14900
H432        H  0.43398761  0.93597960  0.88570401     0.00700
H433        H  0.40775650  0.91247513  0.72393229     0.15200
H434        H  0.40890051  0.85087036  0.83654308     0.15000
C435        C  0.38862511  0.60919505  0.79975335     0.86800
C436        C  0.40736715  0.58843115  0.76757564    -0.53400
C437        C  0.42376565  0.57132046  0.79911318     0.09700
C438        C  0.41974615  0.57678000  0.85994797     0.20700
C439        C  0.37111463  0.59048091  0.83827990    -0.54200
C440        C  0.38741284  0.57341642  0.87011335     0.09800
C441        C  0.40937107  0.62580315  0.83587120    -0.53700
C442        C  0.42584047  0.60880940  0.86749015     0.10400
H443        H  0.40816082  0.58783393  0.72398595     0.14900
H444        H  0.43310786  0.56290100  0.88576531     0.00700
H445        H  0.34802020  0.59032060  0.83952408     0.15200
H446        H  0.41059541  0.64881480  0.83701418     0.15000
C447        C  0.10640102  0.89088856  0.79823619     0.86800
C448        C  0.08578132  0.87405316  0.83420312    -0.53400
C449        C  0.06919027  0.89087400  0.86590704     0.09700
C450        C  0.07503002  0.92297528  0.85856672     0.20700
C451        C  0.08751040  0.91159659  0.76614137    -0.54200
C452        C  0.07096227  0.92855452  0.79775605     0.09800
C453        C  0.12375419  0.90962640  0.83688294    -0.53700
C454        C  0.10734771  0.92652851  0.86875296     0.10400
H455        H  0.08478564  0.85102845  0.83531441     0.14900
H456        H  0.06158334  0.93670370  0.88451314     0.00700
H457        H  0.08678080  0.91229613  0.72255707     0.15200
H458        H  0.14684804  0.90994742  0.83814777     0.15000
C459        C  0.10653697  0.60898701  0.79857214     0.86800
C460        C  0.12404269  0.59024243  0.83694934    -0.53400
C461        C  0.10775974  0.57332509  0.86901621     0.09700
C462        C  0.07541466  0.57679947  0.85926202     0.20700
C463        C  0.08755843  0.58826641  0.76669168    -0.54200
C464        C  0.07114420  0.57127316  0.79850644     0.09800
C465        C  0.08598720  0.62574157  0.83488881    -0.53700
C466        C  0.06953276  0.60886093  0.86679325     0.10400
H467        H  0.14714051  0.58996409  0.83796993     0.14900
H468        H  0.06208727  0.56300860  0.88532259     0.00700
H469        H  0.08663693  0.58761466  0.72311706     0.15200
H470        H  0.08489808  0.64875858  0.83597893     0.15000
N471        N  0.45343227  0.99998904  0.78194105    -0.36300
N472        N  0.49717708  0.95687805  0.77504593    -0.56800
N473        N  0.04161793  0.99999775  0.78194945    -0.36300
N474        N  0.49713118  0.54309283  0.77622150    -0.56800
C475        C  0.43767992  0.97692569  0.76948904     0.27300
C476        C  0.43833374  0.52300244  0.76688605     0.27300
C477        C  0.05633427  0.97695839  0.76546336     0.27300
C478        C  0.05628861  0.52303895  0.76603352     0.27300
C479        C  0.47422087  0.93962445  0.77498507     0.35900
C480        C  0.02044071  0.93965954  0.77471348     0.35900
C481        C  0.47417775  0.56035088  0.77559028     0.35900
C482        C  0.02047391  0.56030015  0.77646105     0.35900
C483        C  0.41199920  0.98533748  0.74766165    -0.21600
C484        C  0.41463286  0.51463964  0.73806719    -0.21600
C485        C  0.07997271  0.98534971  0.73644761    -0.21600
C486        C  0.08016057  0.51467988  0.73772501    -0.21600
C487        C  0.48254778  0.91172694  0.76987533    -0.22600
C488        C  0.01208527  0.91177324  0.76965942    -0.22600
C489        C  0.48248458  0.58826322  0.77064854    -0.22600
C490        C  0.01213304  0.58826062  0.77370589    -0.22600
C491        C  0.44575694  0.94859206  0.77861937    -0.18000
C492        C  0.44576273  0.55124519  0.77811415    -0.18000
C493        C  0.04894648  0.55123973  0.77788610    -0.18000
C494        C  0.04891361  0.94870235  0.77688651    -0.18000
H495        H  0.39524439  0.97174004  0.73262667     0.14900
H496        H  0.39911324  0.52826942  0.71892762     0.14900
H497        H  0.09546104  0.97173289  0.71718193     0.14900
H498        H  0.09583693  0.52831083  0.71904529     0.14900
H499        H  0.46880517  0.89361064  0.76409130     0.13200
H500        H  0.02578991  0.89368106  0.76325512     0.13200
H501        H  0.46875128  0.60635967  0.76450147     0.13200
H502        H  0.02587738  0.60643755  0.76875516     0.13200
H503        H  0.47294348  0.99998783  0.80155813     0.26500
H504        H  0.02359190  0.99998644  0.80633115     0.26500
C505        C  0.39002283  0.89092039  0.21140979     0.86800
C506        C  0.40901068  0.91164168  0.24320490    -0.53400
C507        C  0.42559456  0.92840203  0.21129197     0.09700
C508        C  0.42151432  0.92265530  0.15060073     0.20700
C509        C  0.37275084  0.90964645  0.17258512    -0.54200
C510        C  0.38923288  0.92641298  0.14057629     0.09800
C511        C  0.41057032  0.87386951  0.17559832    -0.53700
C512        C  0.42720672  0.89049901  0.14357997     0.10400
H513        H  0.40974580  0.91253266  0.28677789     0.14900
H514        H  0.43501546  0.93625349  0.12449747     0.00700
H515        H  0.34965934  0.91008768  0.17135865     0.15200
H516        H  0.41147782  0.85083929  0.17481941     0.15000
C517        C  0.10785184  0.89102856  0.20974330     0.86800
C518        C  0.12485724  0.91004967  0.17090302    -0.53400
C519        C  0.10800690  0.92664347  0.13916464     0.09700
C520        C  0.07588419  0.92256803  0.14950798     0.20700
C521        C  0.08873459  0.91150087  0.24186205    -0.54200
C522        C  0.07194317  0.92815679  0.21013830     0.09800
C523        C  0.08738933  0.87388630  0.17390641    -0.53700
C524        C  0.07051618  0.89045552  0.14225889     0.10400
H525        H  0.14793675  0.91071977  0.16932333     0.14900
H526        H  0.06217069  0.93608732  0.12365115     0.00700
H527        H  0.08816283  0.91239968  0.28544432     0.15200
H528        H  0.08664493  0.85085249  0.17296415     0.15000
N529        N  0.49867391  0.88213066  0.08719462    -0.36300
N530        N  0.45483053  0.87819886  0.00490154    -0.56800
N531        N  0.49725588  0.88137571  0.92124715    -0.36300
N532        N  0.04122683  0.87832828  0.00453611    -0.56800
C533        C  0.47578467  0.87392176  0.11607985     0.27300
C534        C  0.02191327  0.87371454  0.11635770     0.27300
C535        C  0.47399679  0.87381857  0.89279154     0.27300
C536        C  0.02058461  0.87454586  0.89312669     0.27300
C537        C  0.43790290  0.87735631  0.04871151     0.35900
C538        C  0.43719339  0.87730062  0.96205453     0.35900
C539        C  0.05881154  0.87805274  0.04747468     0.35900
C540        C  0.05830140  0.87823396  0.96087379     0.35900
C541        C  0.48452813  0.85979476  0.16187110    -0.21600
C542        C  0.01382142  0.85927291  0.16220548    -0.21600
C543        C  0.48207028  0.86031161  0.84595068    -0.21600
C544        C  0.01190664  0.86103862  0.84663948    -0.21600
C545        C  0.40993226  0.87366676  0.03376881    -0.22600
C546        C  0.40949897  0.87358481  0.97858448    -0.22600
C547        C  0.08666673  0.87552010  0.03116674    -0.22600
C548        C  0.08635682  0.87565806  0.97603930    -0.22600
C549        C  0.44732656  0.87932672  0.10213862    -0.18000
C550        C  0.05011271  0.87935603  0.10136796    -0.18000
C551        C  0.04899508  0.87990929  0.90733531    -0.18000
C552        C  0.44577719  0.87915026  0.90809378    -0.18000
H553        H  0.47110111  0.85015808  0.19212159     0.14900
H554        H  0.02766285  0.84961703  0.19175759     0.14900
H555        H  0.46821886  0.85122058  0.81578256     0.14900
H556        H  0.02536695  0.85175915  0.81605261     0.14900
H557        H  0.39210079  0.86987018  0.06020060     0.13200
H558        H  0.39130498  0.86960015  0.95317775     0.13200
H559        H  0.10492632  0.87219157  0.05672521     0.13200
H560        H  0.10436819  0.87256359  0.94974121     0.13200
H561        H  0.49837550  0.89422687  0.05218278     0.26500
H562        H  0.49753234  0.89301593  0.95677472     0.26500
C563        C  0.10683082  0.60855067  0.21109306     0.86800
C564        C  0.08660170  0.62603134  0.17528603    -0.53400
C565        C  0.06962073  0.60971160  0.14328770     0.09700
C566        C  0.07454922  0.57752739  0.15039749     0.20700
C567        C  0.08745713  0.58821431  0.24288682    -0.54200
C568        C  0.07049132  0.57184583  0.21105195     0.09800
C569        C  0.12364049  0.58945907  0.17201127    -0.53700
C570        C  0.10662916  0.57317975  0.13993107     0.10400
H571        H  0.08611934  0.64907242  0.17456498     0.14900
H572        H  0.06069749  0.56422040  0.12440529     0.00700
H573        H  0.08693052  0.58711128  0.28645764     0.15200
H574        H  0.14671003  0.58856944  0.17042637     0.15000
N575        N  0.45510438  0.99991479  0.22732565    -0.36300
N576        N  0.49902901  0.95680638  0.23321264    -0.56800
N577        N  0.04241516  0.99992793  0.22697743    -0.36300
N578        N  0.49790643  0.54307083  0.23554269    -0.56800
C579        C  0.44011195  0.97685950  0.24285597     0.27300
C580        C  0.43846964  0.52297193  0.24183197     0.27300
C581        C  0.05800877  0.97686368  0.24021014     0.27300
C582        C  0.05684142  0.52300318  0.24090291     0.27300
C583        C  0.47609034  0.93952366  0.23347253     0.35900
C584        C  0.02166263  0.93945766  0.23343197     0.35900
C585        C  0.47494817  0.56031412  0.23606079     0.35900
C586        C  0.02033875  0.56039222  0.23569154     0.35900
C587        C  0.41593690  0.98524481  0.27019876    -0.21600
C588        C  0.41316261  0.51455645  0.26518974    -0.21600
C589        C  0.08336067  0.98527988  0.26333538    -0.21600
C590        C  0.08256427  0.51458238  0.26255093    -0.21600
C591        C  0.48445913  0.91157646  0.23721091    -0.22600
C592        C  0.01331281  0.91149735  0.23710112    -0.22600
C593        C  0.48330283  0.58822617  0.24092444    -0.22600
C594        C  0.01200219  0.58827792  0.24131848    -0.22600
C595        C  0.44762879  0.94858825  0.23175123    -0.18000
C596        C  0.44647861  0.55131948  0.23262214    -0.18000
C597        C  0.04880019  0.55135728  0.23164564    -0.18000
C598        C  0.05013067  0.94851860  0.23058682    -0.18000
H599        H  0.40012106  0.97162826  0.28848985     0.14900
H600        H  0.39668530  0.52815405  0.28128863     0.14900
H601        H  0.09991355  0.97168405  0.27914431     0.14900
H602        H  0.09936095  0.52817372  0.27743695     0.14900
H603        H  0.47076813  0.89340677  0.24288868     0.13200
H604        H  0.02704506  0.89330904  0.24204989     0.13200
H605        H  0.46959415  0.60637843  0.24660648     0.13200
H606        H  0.02573656  0.60639259  0.24726274     0.13200
H607        H  0.47348298  0.99991898  0.20395497     0.26500
H608        H  0.02317011  0.99992834  0.20639418     0.26500
N609        N  0.11654449  0.99997266  0.08607416    -0.36300
N610        N  0.11681198  0.54420405  0.00363839    -0.56800
N611        N  0.12160715  0.99999807  0.92130181    -0.36300
N612        N  0.11705098  0.95566383  0.00345912    -0.56800
C613        C  0.11827025  0.52306877  0.11738135     0.27300
C614        C  0.11974961  0.97685161  0.11753575     0.27300
C615        C  0.12042091  0.52313908  0.88967259     0.27300
C616        C  0.11974660  0.97686197  0.88941858     0.27300
C617        C  0.12313625  0.55978900  0.04743907     0.35900
C618        C  0.12478888  0.55959578  0.96051370     0.35900
C619        C  0.12433104  0.94030993  0.04702483     0.35900
C620        C  0.12481229  0.94038462  0.96005427     0.35900
C621        C  0.12490548  0.51458772  0.16894981    -0.21600
C622        C  0.12561301  0.98531273  0.16947195    -0.21600
C623        C  0.12015724  0.51465303  0.83667526    -0.21600
C624        C  0.11923198  0.98538346  0.83646224    -0.21600
C625        C  0.13630118  0.58475886  0.03230502    -0.22600
C626        C  0.13724709  0.58468937  0.97685268    -0.22600
C627        C  0.13775978  0.91556374  0.03142334    -0.22600
C628        C  0.13797652  0.91556155  0.97594758    -0.22600
C629        C  0.11704784  0.55160815  0.10064903    -0.18000
C630        C  0.11863592  0.94834218  0.10045211    -0.18000
C631        C  0.11900102  0.94828665  0.90661309    -0.18000
C632        C  0.11952548  0.55168071  0.90689466    -0.18000
H633        H  0.13073351  0.52814886  0.20222172     0.14900
H634        H  0.13092193  0.97171968  0.20300481     0.14900
H635        H  0.12164076  0.52833298  0.80201185     0.14900
H636        H  0.12061779  0.97170946  0.80178751     0.14900
H637        H  0.14479354  0.60098987  0.05853862     0.13200
H638        H  0.14635149  0.60096939  0.95145028     0.13200
H639        H  0.14680130  0.89948549  0.05734985     0.13200
H640        H  0.14707973  0.89942001  0.95024063     0.13200
H641        H  0.11114187  0.99997956  0.04592849     0.26500
H642        H  0.12339428  0.99999013  0.96251749     0.26500
N643        N  0.49801574  0.61854048  0.08846327    -0.36300
N644        N  0.04103106  0.62140625  0.00513089    -0.56800
N645        N  0.49777690  0.61751329  0.92271151    -0.36300
N646        N  0.45479518  0.62136242  0.00555300    -0.56800
C647        C  0.02109391  0.62615675  0.11697157     0.27300
C648        C  0.47491996  0.62614427  0.11728143     0.27300
C649        C  0.02088450  0.62533246  0.89383413     0.27300
C650        C  0.47464060  0.62517570  0.89397994     0.27300
C651        C  0.05836918  0.62240177  0.04838783     0.35900
C652        C  0.05830186  0.62161752  0.96175215     0.35900
C653        C  0.43756005  0.62189043  0.04895445     0.35900
C654        C  0.43739609  0.62128797  0.96235565     0.35900
C655        C  0.01266566  0.63934859  0.16391188    -0.21600
C656        C  0.48325931  0.63959679  0.16403368    -0.21600
C657        C  0.01247903  0.64005933  0.84851133    -0.21600
C658        C  0.48295666  0.63903608  0.84763422    -0.21600
C659        C  0.08623727  0.62552276  0.03245153    -0.22600
C660        C  0.08620704  0.62497886  0.97728711    -0.22600
C661        C  0.40958751  0.62442862  0.03332991    -0.22600
C662        C  0.40947186  0.62400815  0.97819906    -0.22600
C663        C  0.04943595  0.62103189  0.10220913    -0.18000
C664        C  0.44663733  0.62059003  0.10265228    -0.18000
C665        C  0.44634703  0.61954284  0.90864336    -0.18000
C666        C  0.04920476  0.61970356  0.90815537    -0.18000
H667        H  0.02628982  0.64845769  0.19442767     0.14900
H668        H  0.46957819  0.64865942  0.19450281     0.14900
H669        H  0.02611802  0.64995472  0.81890416     0.14900
H670        H  0.46926459  0.64830065  0.81740421     0.14900
H671        H  0.10430502  0.62942247  0.05822302     0.13200
H672        H  0.10424919  0.62840035  0.95119807     0.13200
H673        H  0.39152172  0.62789726  0.05931489     0.13200
H674        H  0.39129303  0.62709337  0.95231943     0.13200
H675        H  0.49804088  0.60685921  0.05298550     0.26500
H676        H  0.49787447  0.60565706  0.95800875     0.26500
C677        C  0.38900836  0.60895492  0.21105844     0.86800
C678        C  0.37210042  0.58989835  0.17211054    -0.53400
C679        C  0.38901276  0.57325423  0.14056265     0.09700
C680        C  0.42110549  0.57734200  0.15117204     0.20700
C681        C  0.40804615  0.58850929  0.24337858    -0.54200
C682        C  0.42486821  0.57178920  0.21186765     0.09800
C683        C  0.40953501  0.62606586  0.17533867    -0.53700
C684        C  0.42645597  0.60946869  0.14385750     0.10400
H685        H  0.34902749  0.58925188  0.17031331     0.14900
H686        H  0.43488435  0.56380758  0.12546293     0.00700
H687        H  0.40850099  0.58763096  0.28696678     0.15200
H688        H  0.41022522  0.64909953  0.17420355     0.15000
N689        N  0.38043421  0.49992259  0.08696896    -0.36300
N690        N  0.37890776  0.54433555  0.00470610    -0.54600
N691        N  0.37284611  0.49995020  0.92299286    -0.36300
N692        N  0.37888854  0.95577763  0.00569947    -0.56800
C693        C  0.37728250  0.52303133  0.11855861     0.27300
C694        C  0.37676305  0.97675738  0.11972001     0.27300
C695        C  0.37487360  0.52310168  0.89106967     0.27300
C696        C  0.37625644  0.97687460  0.89190894     0.27300
C697        C  0.37224007  0.55972246  0.04856473     0.35900
C698        C  0.37053496  0.55960594  0.96171345     0.35900
C699        C  0.37200686  0.94013127  0.04913060     0.35900
C700        C  0.37217323  0.94017183  0.96221139     0.35900
C701        C  0.37146023  0.51454133  0.17047522    -0.21600
C702        C  0.37566435  0.98527360  0.17265605    -0.21600
C703        C  0.37554992  0.51458691  0.83815866    -0.21600
C704        C  0.36923420  0.98533518  0.84048261    -0.21600
C705        C  0.35859681  0.58446820  0.03360376    -0.22600
C706        C  0.35760952  0.58444634  0.97817042    -0.22600
C707        C  0.35977658  0.91482643  0.03329386    -0.22600
C708        C  0.35980444  0.91489450  0.97783517    -0.22600
C709        C  0.37843433  0.55157890  0.10169588    -0.18000
C710        C  0.37774800  0.94816044  0.10253281    -0.18000
C711        C  0.37760606  0.94838634  0.90886142    -0.18000
C712        C  0.37569341  0.55171152  0.90809567    -0.18000
H713        H  0.36619343  0.52811996  0.20405018     0.14900
H714        H  0.37327526  0.97161085  0.20718520     0.14900
H715        H  0.37425252  0.52827601  0.80350392     0.14900
H716        H  0.36321883  0.97176037  0.80734037     0.14900
H717        H  0.34985629  0.60052874  0.05992952     0.13200
H718        H  0.34818108  0.60058499  0.95287099     0.13200
H719        H  0.35129604  0.89836726  0.05903441     0.13200
H720        H  0.35124631  0.89854721  0.95193237     0.13200
H721        H  0.38580104  0.49993090  0.04676332     0.26500
H722        H  0.37081379  0.49994277  0.96422565     0.26500
C723        C  0.32486556  0.82861771  0.66978912    -0.18200
C724        C  0.33843266  0.84226910  0.70177028     0.05900
C725        C  0.35509425  0.85894792  0.73687179     0.07700
C726        C  0.36978655  0.87345720  0.76556344    -0.19000
C727        C  0.32706987  0.67285574  0.66857920    -0.18200
C728        C  0.34067976  0.65918402  0.70052857     0.05900
C729        C  0.35695171  0.64239255  0.73620332     0.07700
C730        C  0.37107276  0.62758029  0.76543641    -0.19000
C731        C  0.16896405  0.82827939  0.66718154    -0.18200
C732        C  0.15531941  0.84171770  0.69939991     0.05900
C733        C  0.13873378  0.85818489  0.73504554     0.07700
C734        C  0.12422499  0.87273533  0.76403676    -0.19000
C735        C  0.32634678  0.82858874  0.34131368    -0.18200
C736        C  0.34025569  0.84215234  0.30965355     0.05900
C737        C  0.35727608  0.85859379  0.27464084     0.07700
C738        C  0.37207098  0.87298872  0.24584827    -0.19000
C739        C  0.16933108  0.67191892  0.66791285    -0.18200
C740        C  0.15556039  0.65832245  0.69979645     0.05900
C741        C  0.13882874  0.64177470  0.73521648     0.07700
C742        C  0.12427165  0.62720113  0.76417329    -0.19000
C743        C  0.12582363  0.87299641  0.24394232    -0.18200
C744        C  0.14007713  0.85804830  0.27268132     0.05900
C745        C  0.15635466  0.84088954  0.30768140     0.07700
C746        C  0.16992518  0.82703045  0.33937174    -0.19000
C747        C  0.32724248  0.67218291  0.34271560    -0.18200
C748        C  0.34059704  0.65847500  0.31039854     0.05900
C749        C  0.35672094  0.64167988  0.27443503     0.07700
C750        C  0.37096104  0.62696876  0.24519724    -0.19000
C751        C  0.16933756  0.67080935  0.34359987    -0.18200
C752        C  0.15565326  0.65701933  0.31187210     0.05900
C753        C  0.13928310  0.64044474  0.27586098     0.07700
C754        C  0.12496507  0.62612980  0.24599887    -0.19000
N755        N  0.71456548  0.30361987  0.44446373    -0.05800
N756        N  0.70954153  0.32279932  0.40691136    -0.57900
N757        N  0.69471529  0.28345463  0.56766109    -0.05500
N758        N  0.67560487  0.28868630  0.60532171    -0.60000
N759        N  0.71472281  0.30302513  0.56806000    -0.05100
N760        N  0.70961448  0.32197489  0.60600824    -0.57900
N761        N  0.69465096  0.28397294  0.44413341    -0.04800
N762        N  0.67565550  0.28937989  0.40636829    -0.60400
C763        C  0.68539106  0.31347101  0.38333258     0.96400
C764        C  0.68535239  0.31256786  0.62910247     0.96200
N765        N  0.71393519  0.19653924  0.56659067    -0.06000
N766        N  0.70874002  0.17758271  0.60445714    -0.58500
N767        N  0.69439877  0.21690470  0.44287573    -0.04100
N768        N  0.67567508  0.21230773  0.40423827    -0.59700
N769        N  0.71398928  0.19693220  0.44288850    -0.06000
N770        N  0.70900524  0.17834497  0.40428396    -0.58800
N771        N  0.69419748  0.21636670  0.56662059    -0.03700
N772        N  0.67516206  0.21130640  0.60450170    -0.59800
Mn773      Mn  0.69369325  0.25015606  0.50531192     1.18400
C774        C  0.68469798  0.18724392  0.62792488     0.98500
C775        C  0.68524240  0.18837309  0.38036762     0.99100
N776        N  0.78216926  0.30250591  0.56725366    -0.06000
N777        N  0.78757367  0.32128867  0.60530548    -0.62300
N778        N  0.80138535  0.28311686  0.44303284    -0.04800
N779        N  0.82021070  0.28825332  0.40480268    -0.63000
N780        N  0.78175450  0.30305298  0.44378726    -0.05500
N781        N  0.78680177  0.32213543  0.40607206    -0.62600
N782        N  0.80189517  0.28266673  0.56657777    -0.04400
N783        N  0.82111546  0.28753018  0.60421382    -0.63300
Mn784      Mn  0.74831777  0.30382611  0.50598720     1.10700
C785        C  0.81171233  0.31149317  0.62818817     0.99700
C786        C  0.81065485  0.31246866  0.38193205     0.99800
N787        N  0.78101113  0.19613777  0.44274464    -0.05500
N788        N  0.78588521  0.17705511  0.40494973    -0.60900
N789        N  0.80129096  0.21567889  0.56600015    -0.04900
N790        N  0.82026299  0.21061302  0.60394941    -0.57700
N791        N  0.78133149  0.19606483  0.56631696    -0.06200
N792        N  0.78635097  0.17720675  0.60446717    -0.60500
N793        N  0.80090590  0.21580883  0.44233058    -0.05200
N794        N  0.81974456  0.21049150  0.40421551    -0.57700
Mn795      Mn  0.74754204  0.19560985  0.50473947     1.20200
Mn796      Mn  0.80217010  0.24930381  0.50439577     1.10100
Cl797      Cl  0.74793792  0.24972753  0.50519077    -0.85600
C798        C  0.80991253  0.18645816  0.38106131     0.96700
C799        C  0.81051070  0.18675225  0.62773792     0.96500
C800        C  0.88885232  0.39086211  0.79891377     0.86800
C801        C  0.87142490  0.40958373  0.83749993    -0.53400
C802        C  0.88780672  0.42656072  0.86931482     0.09700
C803        C  0.92010379  0.42315384  0.85909051     0.20700
C804        C  0.90759645  0.41162088  0.76670464    -0.54200
C805        C  0.92405324  0.42868426  0.79823967     0.09800
C806        C  0.90958833  0.37418348  0.83497960    -0.53700
C807        C  0.92608784  0.39110900  0.86669145     0.10400
H808        H  0.84833176  0.40982220  0.83879974     0.14900
H809        H  0.93350785  0.43699571  0.88490467     0.00700
H810        H  0.90833266  0.41226208  0.72311260     0.15200
H811        H  0.91071546  0.35116800  0.83613100     0.15000
C812        C  0.88863910  0.10916901  0.79975800     0.86800
C813        C  0.90772154  0.08864020  0.76768150    -0.53400
C814        C  0.92407262  0.07150142  0.79930305     0.09700
C815        C  0.91967456  0.07678343  0.86017237     0.20700
C816        C  0.87107008  0.09022306  0.83766418    -0.54200
C817        C  0.88729519  0.07320770  0.86963158     0.09800
C818        C  0.90905150  0.12582249  0.83650582    -0.53700
C819        C  0.92548012  0.10885336  0.86828492     0.10400
H820        H  0.90866588  0.08813280  0.72409934     0.14900
H821        H  0.93297165  0.06290902  0.88611109     0.00700
H822        H  0.84796984  0.08996519  0.83859445     0.15200
H823        H  0.91017936  0.14883715  0.83774827     0.15000
C824        C  0.60632272  0.39101203  0.79885046     0.86800
C825        C  0.58598829  0.37405809  0.83525843    -0.53400
C826        C  0.56941586  0.39079266  0.86719830     0.09700
C827        C  0.57494394  0.42289885  0.85961703     0.20700
C828        C  0.58710183  0.41155611  0.76702163    -0.54200
C829        C  0.57057302  0.42841535  0.79890380     0.09800
C830        C  0.62367371  0.40993129  0.83716827    -0.53700
C831        C  0.60723717  0.42667467  0.86926303     0.10400
H832        H  0.58511207  0.35103087  0.83636554     0.14900
H833        H  0.56151456  0.43655343  0.88574293     0.00700
H834        H  0.58621550  0.41228290  0.72345135     0.15200
H835        H  0.64676817  0.41043512  0.83816000     0.15000
C836        C  0.60630881  0.10882591  0.79830584     0.86800
C837        C  0.62286018  0.08992848  0.83802685    -0.53400
C838        C  0.60565405  0.07351205  0.86942411     0.09700
C839        C  0.57367203  0.07764062  0.85793416     0.20700
C840        C  0.58743381  0.08826548  0.76586357    -0.54200
C841        C  0.57031286  0.07176902  0.79724196     0.09800
C842        C  0.58560753  0.12619694  0.83323166    -0.53700
C843        C  0.56844311  0.10981079  0.86466900     0.10400
H844        H  0.64591754  0.08913442  0.84029662     0.14900
H845        H  0.55967780  0.06428054  0.88356353     0.00700
H846        H  0.58727402  0.08718684  0.72228575     0.15200
H847        H  0.58512131  0.14923841  0.83417333     0.15000
N848        N  0.95351354  0.49998179  0.78147088    -0.36300
N849        N  0.99751815  0.45697500  0.77522811    -0.56800
N850        N  0.54106575  0.49999446  0.78365409    -0.36300
N851        N  0.99748242  0.04304062  0.77567453    -0.56800
C852        C  0.93866597  0.47694205  0.76547845     0.27300
C853        C  0.93855054  0.02302794  0.76715949     0.27300
C854        C  0.55593518  0.47695476  0.76755198     0.27300
C855        C  0.55644602  0.02308483  0.76614875     0.27300
C856        C  0.97457025  0.43968762  0.77591855     0.35900
C857        C  0.52005698  0.43957744  0.77573520     0.35900
C858        C  0.97452213  0.06032650  0.77540396     0.35900
C859        C  0.52012094  0.06037668  0.77416709     0.35900
C860        C  0.91474124  0.48532324  0.73730721    -0.21600
C861        C  0.91461916  0.01464817  0.73903168    -0.21600
C862        C  0.57978955  0.48535904  0.73927022    -0.21600
C863        C  0.58138387  0.01468367  0.74136830    -0.21600
C864        C  0.98293144  0.41171943  0.77328116    -0.22600
C865        C  0.51170863  0.41168448  0.77064290    -0.22600
C866        C  0.98285600  0.08820526  0.77011937    -0.22600
C867        C  0.51174445  0.08828339  0.76950109    -0.22600
C868        C  0.94609264  0.44873113  0.77721968    -0.18000
C869        C  0.94606090  0.05128880  0.77835456    -0.18000
C870        C  0.54860871  0.05139544  0.77637536    -0.18000
C871        C  0.54849205  0.44864664  0.77846095    -0.18000
H872        H  0.89902546  0.47170331  0.71871374     0.14900
H873        H  0.89897541  0.02827406  0.72024387     0.14900
H874        H  0.59537240  0.47175029  0.72027296     0.14900
H875        H  0.59770722  0.02829149  0.72472981     0.14900
H876        H  0.96922071  0.39351945  0.76823072     0.13200
H877        H  0.52542683  0.39357172  0.76459154     0.13200
H878        H  0.96911826  0.10628837  0.76392939     0.13200
H879        H  0.52542151  0.10642414  0.76336214     0.13200
H880        H  0.97167176  0.49997603  0.80547800     0.26500
H881        H  0.52282957  0.49998116  0.80747072     0.26500
C882        C  0.88846755  0.39077601  0.21004119     0.86800
C883        C  0.90727316  0.41129216  0.24277681    -0.53400
C884        C  0.92427317  0.42807502  0.21168105     0.09700
C885        C  0.92080918  0.42255154  0.15088207     0.20700
C886        C  0.87172449  0.40976424  0.17078708    -0.54200
C887        C  0.88874226  0.42650114  0.13966318     0.09800
C888        C  0.90926844  0.37375774  0.17465029    -0.53700
C889        C  0.92632248  0.39045415  0.14352193     0.10400
H890        H  0.90749114  0.41211645  0.28637173     0.14900
H891        H  0.93465705  0.43616535  0.12545139     0.00700
H892        H  0.84865835  0.41033841  0.16854629     0.15200
H893        H  0.90999499  0.35072821  0.17338335     0.15000
C894        C  0.60711830  0.39111835  0.21095675     0.86800
C895        C  0.62384884  0.41018850  0.17172833    -0.53400
C896        C  0.60679486  0.42662576  0.14005556     0.09700
C897        C  0.57474026  0.42235866  0.15086883     0.20700
C898        C  0.58796457  0.41151025  0.24312927    -0.54200
C899        C  0.57097080  0.42800885  0.21155308     0.09800
C900        C  0.58665154  0.37376634  0.17541555    -0.53700
C901        C  0.56960220  0.39019367  0.14375801     0.10400
H902        H  0.64691545  0.41099744  0.16985044     0.14900
H903        H  0.56085268  0.43575602  0.12511453     0.00700
H904        H  0.58759044  0.41254351  0.28671034     0.15200
H905        H  0.58610071  0.35072764  0.17453003     0.15000
N906        N  0.99805077  0.38146445  0.08798059    -0.36300
N907        N  0.95484854  0.37872555  0.00510209    -0.56800
N908        N  0.99783048  0.38302097  0.92190167    -0.36300
N909        N  0.54101206  0.37816368  0.00554775    -0.56800
C910        C  0.97495145  0.37403243  0.11698593     0.27300
C911        C  0.52107477  0.37361294  0.11723259     0.27300
C912        C  0.97474475  0.37464185  0.89375235     0.27300
C913        C  0.52081825  0.37445721  0.89396528     0.27300
C914        C  0.93759841  0.37819081  0.04852052     0.35900
C915        C  0.93746017  0.37869131  0.96185799     0.35900
C916        C  0.55836190  0.37762319  0.04881718     0.35900
C917        C  0.55827458  0.37805403  0.96215784     0.35900
C918        C  0.98331357  0.36071047  0.16386456    -0.21600
C919        C  0.51264546  0.36018095  0.16394044    -0.21600
C920        C  0.98311477  0.35994286  0.84837507    -0.21600
C921        C  0.51234738  0.36075417  0.84756403    -0.21600
C922        C  0.90963316  0.37557253  0.03283415    -0.22600
C923        C  0.90954269  0.37589748  0.97768415    -0.22600
C924        C  0.58627661  0.37491608  0.03293161    -0.22600
C925        C  0.58623068  0.37520873  0.97776540    -0.22600
C926        C  0.94663942  0.37950388  0.10229519    -0.18000
C927        C  0.54939746  0.37896293  0.10260937    -0.18000
C928        C  0.54917015  0.37979897  0.90849956    -0.18000
C929        C  0.94644280  0.38031796  0.90812503    -0.18000
H930        H  0.96964536  0.35173200  0.19444403     0.14900
H931        H  0.52626672  0.35103890  0.19442086     0.14900
H932        H  0.96945841  0.35006964  0.81877455     0.14900
H933        H  0.52594550  0.35134826  0.81733237     0.14900
H934        H  0.89154387  0.37213420  0.05878539     0.13200
H935        H  0.89138670  0.37270390  0.95179274     0.13200
H936        H  0.60440527  0.37143377  0.05876062     0.13200
H937        H  0.60432877  0.37199891  0.95172931     0.13200
H938        H  0.99807562  0.39300328  0.05233732     0.26500
H939        H  0.99785988  0.39544507  0.95652846     0.26500
C940        C  0.60778415  0.10908815  0.20969746     0.86800
C941        C  0.58727257  0.12583784  0.17325504    -0.53400
C942        C  0.57088168  0.10898518  0.14117480     0.09700
C943        C  0.57680059  0.07689712  0.14877305     0.20700
C944        C  0.58878609  0.08835742  0.24144041    -0.54200
C945        C  0.57244200  0.07138379  0.20949861     0.09800
C946        C  0.62538713  0.09032717  0.17148588    -0.53700
C947        C  0.60918146  0.07332549  0.13942602     0.10400
H948        H  0.58606816  0.14885271  0.17242703     0.14900
H949        H  0.56352141  0.06309402  0.12265769     0.00700
H950        H  0.58784637  0.08762504  0.28501090     0.15200
H951        H  0.64848680  0.09008169  0.17060692     0.15000
N952        N  0.95351884  0.49991232  0.22907015    -0.36300
N953        N  0.99735967  0.45666416  0.23512528    -0.56800
N954        N  0.54166997  0.49992679  0.22909432    -0.36300
N955        N  0.99871073  0.04313587  0.23420374    -0.56800
C956        C  0.93803018  0.47681866  0.24264542     0.27300
C957        C  0.93936637  0.02299337  0.24261431     0.27300
C958        C  0.55743595  0.47685573  0.24144949     0.27300
C959        C  0.55792231  0.02295501  0.24104229     0.27300
C960        C  0.97439989  0.43942738  0.23619923     0.35900
C961        C  0.52087888  0.43952012  0.23594407     0.35900
C962        C  0.97574169  0.06036347  0.23430365     0.35900
C963        C  0.52197738  0.06030270  0.23264581     0.35900
C964        C  0.91286184  0.48523628  0.26651883    -0.21600
C965        C  0.91398962  0.01456693  0.26571411    -0.21600
C966        C  0.58314370  0.48527852  0.26315058    -0.21600
C967        C  0.58215319  0.01457824  0.26818273    -0.21600
C968        C  0.98277984  0.41154075  0.24154269    -0.22600
C969        C  0.51252112  0.41160548  0.24078364    -0.22600
C970        C  0.98410540  0.08834175  0.23756189    -0.22600
C971        C  0.51367016  0.08824462  0.23673389    -0.22600
C972        C  0.94592398  0.44845263  0.23292817    -0.18000
C973        C  0.94724385  0.05130986  0.23247281    -0.18000
C974        C  0.55040590  0.05120617  0.23002027    -0.18000
C975        C  0.54936145  0.44850724  0.23231429    -0.18000
H976        H  0.89642758  0.47163003  0.28276217     0.14900
H977        H  0.89736018  0.02815416  0.28127065     0.14900
H978        H  0.59992387  0.47168666  0.27809374     0.14900
H979        H  0.59797293  0.02819793  0.28644413     0.14900
H980        H  0.96908847  0.39340723  0.24768053     0.13200
H981        H  0.52623270  0.39344733  0.24636488     0.13200
H982        H  0.97040767  0.10654209  0.24278258     0.13200
H983        H  0.52743156  0.10638278  0.24208048     0.13200
H984        H  0.97263256  0.49991807  0.20806391     0.26500
H985        H  0.52214279  0.49992356  0.20956599     0.26500
N986        N  0.61451855  0.49997851  0.08660859    -0.36300
N987        N  0.61683946  0.04435622  0.00514015    -0.56800
N988        N  0.62040634  0.50001121  0.92189685    -0.36300
N989        N  0.61628127  0.45572433  0.00403832    -0.56800
C990        C  0.62253814  0.02313032  0.11878653     0.27300
C991        C  0.61834044  0.47685928  0.11790189     0.27300
C992        C  0.61613232  0.02311993  0.89146465     0.27300
C993        C  0.61950187  0.47689679  0.88991798     0.27300
C994        C  0.62558747  0.05963388  0.04780469     0.35900
C995        C  0.62290511  0.05980092  0.96107248     0.35900
C996        C  0.62315563  0.44027003  0.04769672     0.35900
C997        C  0.62425938  0.44047269  0.96074289     0.35900
C998        C  0.62344376  0.01460292  0.17173653    -0.21600
C999        C  0.62512979  0.48532366  0.16941092    -0.21600
C1000       C  0.62089096  0.01463325  0.83921395    -0.21600
C1001       C  0.62020207  0.48539486  0.83691411    -0.21600
C1002       C  0.63813931  0.08459022  0.03093451    -0.22600
C1003       C  0.63657130  0.08463105  0.97554906    -0.22600
C1004       C  0.63666588  0.41552818  0.03229855    -0.22600
C1005       C  0.63727971  0.41561359  0.97682613    -0.22600
C1006       C  0.62103731  0.05170425  0.10156658    -0.18000
C1007       C  0.61716463  0.44832743  0.10099723    -0.18000
C1008       C  0.61873804  0.44837708  0.90718974    -0.18000
C1009       C  0.61586265  0.05169785  0.90830277    -0.18000
H1010       H  0.62547239  0.02826470  0.20634679     0.14900
H1011       H  0.63109383  0.47174077  0.20256664     0.14900
H1012       H  0.62582236  0.02821329  0.80547456     0.14900
H1013       H  0.62234916  0.47174621  0.80230402     0.14900
H1014       H  0.64769777  0.10078759  0.05593112     0.13200
H1015       H  0.64492611  0.10077278  0.94895792     0.13200
H1016       H  0.64555062  0.39942210  0.05834936     0.13200
H1017       H  0.64653403  0.39950185  0.95123978     0.13200
H1018       H  0.60834848  0.49998717  0.04679688     0.26500
H1019       H  0.62096210  0.50000193  0.96320724     0.26500
N1020       N  0.99868252  0.11798835  0.08859678    -0.36300
N1021       N  0.54109707  0.12174010  0.00355830    -0.56800
N1022       N  0.99768205  0.11756244  0.92238254    -0.36300
N1023       N  0.95512762  0.12109014  0.00599644    -0.56800
C1024       C  0.52197986  0.12565488  0.11537580     0.27300
C1025       C  0.97578233  0.12631919  0.11728438     0.27300
C1026       C  0.52013668  0.12641409  0.89212808     0.27300
C1027       C  0.97442427  0.12510639  0.89390885     0.27300
C1028       C  0.55880444  0.12173077  0.04635231     0.35900
C1029       C  0.55800478  0.12248792  0.95970244     0.35900
C1030       C  0.93812217  0.12243097  0.04967241     0.35900
C1031       C  0.93755314  0.12174060  0.96303140     0.35900
C1032       C  0.51390937  0.13991828  0.16144017    -0.21600
C1033       C  0.98444147  0.14070938  0.16283055    -0.21600
C1034       C  0.51143375  0.13982020  0.84555696    -0.21600
C1035       C  0.98253511  0.13876900  0.84722946    -0.21600
C1036       C  0.58658908  0.12472012  0.02982520    -0.22600
C1037       C  0.58607800  0.12521185  0.97467161    -0.22600
C1038       C  0.91022543  0.12618960  0.03446501    -0.22600
C1039       C  0.90986021  0.12576419  0.97930703    -0.22600
C1040       C  0.55020353  0.11989495  0.10029423    -0.18000
C1041       C  0.94737346  0.12096466  0.10324783    -0.18000
C1042       C  0.94619484  0.11961469  0.90914466    -0.18000
C1043       C  0.54855545  0.12112747  0.90618418    -0.18000
H1044       H  0.52776675  0.14940472  0.19115975     0.14900
H1045       H  0.97096531  0.15047199  0.19285273     0.14900
H1046       H  0.52487859  0.14902059  0.81485521     0.14900
H1047       H  0.96870660  0.14794501  0.81711969     0.14900
H1048       H  0.60492375  0.12792222  0.05526487     0.13200
H1049       H  0.60396410  0.12876396  0.94827022     0.13200
H1050       H  0.89242595  0.13046241  0.06069645     0.13200
H1051       H  0.89172786  0.12970568  0.95372074     0.13200
H1052       H  0.99847700  0.10571430  0.05380339     0.26500
H1053       H  0.99792958  0.10586864  0.95786429     0.26500
C1054       C  0.88943349  0.10861265  0.21117603     0.86800
C1055       C  0.87283343  0.08974961  0.17149621    -0.53400
C1056       C  0.88996710  0.07335178  0.13997520     0.09700
C1057       C  0.92198401  0.07750902  0.15119740     0.20700
C1058       C  0.90837203  0.08803220  0.24339240    -0.54200
C1059       C  0.92546276  0.07161772  0.21182257     0.09800
C1060       C  0.91012572  0.12604282  0.17618291    -0.53700
C1061       C  0.92728106  0.10968436  0.14458306     0.10400
H1062       H  0.84977109  0.08895800  0.16934556     0.14900
H1063       H  0.93592228  0.06415461  0.12545687     0.00700
H1064       H  0.90861181  0.08689022  0.28696395     0.15200
H1065       H  0.91066630  0.14908257  0.17545356     0.15000
N1066       N  0.88220762  0.99994018  0.08621458    -0.36300
N1067       N  0.87843369  0.04408203  0.00422672    -0.54600
N1068       N  0.87219682  0.99996432  0.92256625    -0.36300
N1069       N  0.87897152  0.45557804  0.00400364    -0.56800
C1070       C  0.87892342  0.02304861  0.11781521     0.27300
C1071       C  0.87738056  0.47680060  0.11804954     0.27300
C1072       C  0.87409018  0.02310327  0.89060492     0.27300
C1073       C  0.87550019  0.47682706  0.89015768     0.27300
C1074       C  0.87293083  0.05984101  0.04814351     0.35900
C1075       C  0.87063968  0.05971414  0.96134593     0.35900
C1076       C  0.87201057  0.44023538  0.04775412     0.35900
C1077       C  0.87081000  0.44034180  0.96083068     0.35900
C1078       C  0.87313724  0.01454757  0.16972813    -0.21600
C1079       C  0.87220861  0.48527052  0.17021997    -0.21600
C1080       C  0.87446063  0.01459746  0.83766042    -0.21600
C1081       C  0.87562088  0.48534369  0.83720465    -0.21600
C1082       C  0.86043804  0.08521326  0.03335982    -0.22600
C1083       C  0.85914375  0.08520311  0.97795841    -0.22600
C1084       C  0.85841307  0.41550340  0.03251092    -0.22600
C1085       C  0.85773613  0.41553045  0.97704712    -0.22600
C1086       C  0.87962102  0.05163086  0.10102491    -0.18000
C1087       C  0.87823245  0.44826952  0.10096882    -0.18000
C1088       C  0.87622033  0.44825555  0.90728198    -0.18000
C1089       C  0.87540068  0.05167897  0.90767952    -0.18000
H1090       H  0.86767605  0.02810854  0.20321448     0.14900
H1091       H  0.86723061  0.47166705  0.20391038     0.14900
H1092       H  0.87319359  0.02828316  0.80298789     0.14900
H1093       H  0.87390128  0.47167358  0.80257547     0.14900
H1094       H  0.85264064  0.10169963  0.05977763     0.13200
H1095       H  0.85040856  0.10176997  0.95276945     0.13200
H1096       H  0.84957356  0.39940772  0.05864637     0.13200
H1097       H  0.84843282  0.39940065  0.95156282     0.13200
H1098       H  0.88756972  0.99994949  0.04595913     0.26500
H1099       H  0.87053134  0.99995727  0.96385419     0.26500
C1100       C  0.82728178  0.32664079  0.66881087    -0.18200
C1101       C  0.84077246  0.34045477  0.70071301     0.05900
C1102       C  0.85699733  0.35754053  0.73594477     0.07700
C1103       C  0.87118992  0.37250951  0.76475553    -0.19000
C1104       C  0.82581520  0.17159540  0.66870978    -0.18200
C1105       C  0.83959131  0.15827084  0.70092181     0.05900
C1106       C  0.85639586  0.14195465  0.73648976     0.07700
C1107       C  0.87096551  0.12745094  0.76548080    -0.19000
C1108       C  0.66981857  0.32808749  0.66938321    -0.18200
C1109       C  0.65594776  0.34178520  0.70095005     0.05900
C1110       C  0.63900069  0.35840812  0.73586983     0.07700
C1111       C  0.62424066  0.37295377  0.76450300    -0.19000
C1112       C  0.82582460  0.32786216  0.34098098    -0.18200
C1113       C  0.83920675  0.34156822  0.30866846     0.05900
C1114       C  0.85560853  0.35822999  0.27286235     0.07700
C1115       C  0.87016938  0.37277011  0.24382707    -0.19000
C1116       C  0.66931666  0.17191507  0.66859748    -0.18200
C1117       C  0.65580692  0.15810827  0.70050689     0.05900
C1118       C  0.63933055  0.14122450  0.73570903     0.07700
C1119       C  0.62472405  0.12658781  0.76441706    -0.19000
C1120       C  0.62540788  0.37344806  0.24538409    -0.18200
C1121       C  0.63999745  0.35918679  0.27485240     0.05900
C1122       C  0.65655023  0.34274977  0.31076744     0.07700
C1123       C  0.67010650  0.32907350  0.34284968    -0.19000
C1124       C  0.82521501  0.17074197  0.34075082    -0.18200
C1125       C  0.83895745  0.15690660  0.30920169     0.05900
C1126       C  0.85593656  0.14038048  0.27416930     0.07700
C1127       C  0.87092098  0.12616970  0.24534366    -0.19000
C1128       C  0.66981242  0.17319069  0.33955005    -0.18200
C1129       C  0.65618411  0.15932249  0.30790257     0.05900
C1130       C  0.63969708  0.14224499  0.27301733     0.07700
C1131       C  0.62537024  0.12735723  0.24424331    -0.19000
N1132       N  0.71402279  0.80302028  0.44283186    -0.05800
N1133       N  0.70904790  0.82159998  0.40420613    -0.57900
N1134       N  0.69421994  0.78363197  0.56658812    -0.05500
N1135       N  0.67517765  0.78872547  0.60443954    -0.60000
N1136       N  0.71397327  0.80344749  0.56653722    -0.05100
N1137       N  0.70878309  0.82242856  0.60435848    -0.57900
N1138       N  0.69442227  0.78305407  0.44283928    -0.04800
N1139       N  0.67570196  0.78764523  0.40419506    -0.60400
C1140       C  0.68527998  0.81157130  0.38029825     0.96400
C1141       C  0.68472573  0.81279549  0.62782352     0.96200
N1142       N  0.71470194  0.69695858  0.56810599    -0.06000
N1143       N  0.70958810  0.67802997  0.60609340    -0.58500
N1144       N  0.69463594  0.71598943  0.44416673    -0.04100
N1145       N  0.67563717  0.71058472  0.40640489    -0.59700
N1146       N  0.71453728  0.69633328  0.44451118    -0.06000
N1147       N  0.70950116  0.67715074  0.40697359    -0.58800
N1148       N  0.69471193  0.71654300  0.56769506    -0.03700
N1149       N  0.67560886  0.71134243  0.60538570    -0.59800
Mn1150     Mn  0.69370055  0.74982132  0.50531265     1.18400
C1151       C  0.68534248  0.68746523  0.62919680     0.98500
C1152       C  0.68535754  0.68648560  0.38338794     0.99100
N1153       N  0.78136409  0.80385327  0.56626031    -0.06000
N1154       N  0.78638096  0.82270689  0.60441506    -0.62300
N1155       N  0.80092101  0.78407160  0.44228940    -0.04800
N1156       N  0.81974553  0.78935832  0.40413250    -0.63000
N1157       N  0.78103988  0.80375222  0.44269108    -0.05500
N1158       N  0.78590881  0.82281086  0.40484825    -0.62600
N1159       N  0.80131180  0.78423085  0.56596640    -0.04400
N1160       N  0.82027428  0.78928867  0.60393841    -0.63300
Mn1161     Mn  0.74757973  0.80432707  0.50468404     1.10700
C1162       C  0.81052656  0.81315235  0.62771303     0.99700
C1163       C  0.80991775  0.81338297  0.38094412     0.99800
N1164       N  0.78172668  0.69684126  0.44381731    -0.05500
N1165       N  0.78676647  0.67774003  0.40613639    -0.60900
N1166       N  0.80188925  0.71723795  0.56659082    -0.04900
N1167       N  0.82111763  0.71235928  0.60420454    -0.57700
N1168       N  0.78214990  0.69740830  0.56728068    -0.06200
N1169       N  0.78755335  0.67861605  0.60531918    -0.60500
N1170       N  0.80137477  0.71676441  0.44304757    -0.05200
N1171       N  0.82020482  0.71159972  0.40484070    -0.57700
Mn1172     Mn  0.74828997  0.69611065  0.50602527     1.20200
Mn1173     Mn  0.80217684  0.75059322  0.50438542     1.10100
Cl1174     Cl  0.74794442  0.75020916  0.50518580    -0.85600
C1175       C  0.81063396  0.68738119  0.38199843     0.96700
C1176       C  0.81170591  0.68839650  0.62818072     0.96500
C1177       C  0.88862506  0.89078831  0.79968006     0.86800
C1178       C  0.87106831  0.90973505  0.83759063    -0.53400
C1179       C  0.88730443  0.92673977  0.86955951     0.09700
C1180       C  0.91968210  0.92315258  0.86009946     0.20700
C1181       C  0.90771828  0.91131410  0.76760614    -0.54200
C1182       C  0.92408072  0.92844270  0.79923022     0.09800
C1183       C  0.90902711  0.87412110  0.83642014    -0.53700
C1184       C  0.92546762  0.89107802  0.86820175     0.10400
H1185       H  0.84796816  0.90999938  0.83852743     0.14900
H1186       H  0.93298776  0.93701790  0.88604224     0.00700
H1187       H  0.90865630  0.91183134  0.72402383     0.15200
H1188       H  0.91014120  0.85110574  0.83765300     0.15000
C1189       C  0.88885112  0.60908156  0.79900374     0.86800
C1190       C  0.90759911  0.58833154  0.76679828    -0.53400
C1191       C  0.92405200  0.57126835  0.79833548     0.09700
C1192       C  0.92009673  0.57678893  0.85918526     0.20700
C1193       C  0.87142026  0.59035011  0.83757862    -0.54200
C1194       C  0.88779916  0.57337314  0.86939614     0.09800
C1195       C  0.90958441  0.62576026  0.83508409    -0.53700
C1196       C  0.92608143  0.60883316  0.86679825     0.10400
H1197       H  0.90834168  0.58769667  0.72320636     0.14900
H1198       H  0.93349816  0.56294559  0.88499893     0.00700
H1199       H  0.84832695  0.59010298  0.83886458     0.15200
H1200       H  0.91071171  0.64877573  0.83624165     0.15000
C1201       C  0.60631048  0.89119790  0.79819360     0.86800
C1202       C  0.58560745  0.87381522  0.83310935    -0.53400
C1203       C  0.56844028  0.89019187  0.86455163     0.09700
C1204       C  0.57366989  0.92236383  0.85783576     0.20700
C1205       C  0.58743480  0.91175972  0.76576139    -0.54200
C1206       C  0.57031228  0.92824530  0.79714663     0.09800
C1207       C  0.62285908  0.91009214  0.83792914    -0.53700
C1208       C  0.60565112  0.92649735  0.86933538     0.10400
H1209       H  0.58512174  0.85077352  0.83404039     0.14900
H1210       H  0.55967408  0.93571563  0.88346956     0.00700
H1211       H  0.58727501  0.91284644  0.72218411     0.15200
H1212       H  0.64591622  0.91089006  0.84020542     0.15000
C1213       C  0.60630943  0.60902036  0.79894916     0.86800
C1214       C  0.62367077  0.59011621  0.83727135    -0.53400
C1215       C  0.60724302  0.57336451  0.86937413     0.09700
C1216       C  0.57494753  0.57711918  0.85973544     0.20700
C1217       C  0.58709636  0.58845962  0.76713253    -0.54200
C1218       C  0.57057638  0.57159138  0.79902705     0.09800
C1219       C  0.58596963  0.62596479  0.83535001    -0.53700
C1220       C  0.56940544  0.60922306  0.86729984     0.10400
H1221       H  0.64676555  0.58962195  0.83824976     0.14900
H1222       H  0.56152593  0.56345841  0.88587193     0.00700
H1223       H  0.58620730  0.58772996  0.72356284     0.15200
H1224       H  0.58508528  0.64899163  0.83644736     0.15000
N1225       N  0.95344768  0.99997811  0.78301713    -0.36300
N1226       N  0.99748158  0.95693834  0.77556399    -0.56800
N1227       N  0.54110498  0.00000364  0.78026280    -0.36300
N1228       N  0.99752387  0.54301015  0.77535793    -0.56800
C1229       C  0.93855048  0.97693168  0.76712941     0.27300
C1230       C  0.93866919  0.52302890  0.76551971     0.27300
C1231       C  0.55644402  0.97693293  0.76610616     0.27300
C1232       C  0.55593907  0.52305061  0.76762300     0.27300
C1233       C  0.97452502  0.93964220  0.77528670     0.35900
C1234       C  0.52012014  0.93962602  0.77407155     0.35900
C1235       C  0.97457295  0.56028749  0.77606023     0.35900
C1236       C  0.52005630  0.56040507  0.77591889     0.35900
C1237       C  0.91461932  0.98531736  0.73901230    -0.21600
C1238       C  0.91474335  0.51466065  0.73733307    -0.21600
C1239       C  0.58138289  0.98535137  0.74134243    -0.21600
C1240       C  0.57979172  0.51467298  0.73931404    -0.21600
C1241       C  0.98286366  0.91176910  0.76996316    -0.22600
C1242       C  0.51174581  0.91171740  0.76939491    -0.22600
C1243       C  0.98292934  0.58826006  0.77346082    -0.22600
C1244       C  0.51170244  0.58829565  0.77085823    -0.22600
C1245       C  0.94606352  0.94866808  0.77828104    -0.18000
C1246       C  0.94609620  0.55123406  0.77731909    -0.18000
C1247       C  0.54849421  0.55134919  0.77860447    -0.18000
C1248       C  0.54860736  0.94861583  0.77628854    -0.18000
H1249       H  0.89897586  0.97169555  0.72020676     0.14900
H1250       H  0.89902920  0.52828917  0.71876361     0.14900
H1251       H  0.59770587  0.97175484  0.72468235     0.14900
H1252       H  0.59537520  0.52829910  0.72035241     0.14900
H1253       H  0.96912869  0.89368206  0.76376576     0.13200
H1254       H  0.52542427  0.89358183  0.76324662     0.13200
H1255       H  0.96921582  0.60645561  0.76841607     0.13200
H1256       H  0.52541721  0.60641513  0.76481809     0.13200
H1257       H  0.97172419  0.99997491  0.80671174     0.26500
H1258       H  0.52221415  0.99999538  0.80200256     0.26500
C1259       C  0.88942925  0.89123021  0.21106167     0.86800
C1260       C  0.90837206  0.91179952  0.24329676    -0.53400
C1261       C  0.92547098  0.92821793  0.21174173     0.09700
C1262       C  0.92199581  0.92234053  0.15111239     0.20700
C1263       C  0.87283891  0.91010471  0.17139295    -0.54200
C1264       C  0.88998127  0.92650772  0.13989050     0.09800
C1265       C  0.91011574  0.87380328  0.17606496    -0.53700
C1266       C  0.92727956  0.89016493  0.14447965     0.10400
H1267       H  0.90860595  0.91293440  0.28686890     0.14900
H1268       H  0.93594082  0.93569827  0.12538311     0.00700
H1269       H  0.84977690  0.91090201  0.16923907     0.15200
H1270       H  0.91064682  0.85076348  0.17532308     0.15000
C1271       C  0.60779313  0.89079120  0.20957519     0.86800
C1272       C  0.62538810  0.90958182  0.17139136    -0.53400
C1273       C  0.60917568  0.92659258  0.13936370     0.09700
C1274       C  0.57679681  0.92300159  0.14871488     0.20700
C1275       C  0.58879071  0.91149536  0.24135857    -0.54200
C1276       C  0.57244000  0.92847856  0.20945034     0.09800
C1277       C  0.58728362  0.87405194  0.17310702    -0.53700
C1278       C  0.57088575  0.89091578  0.14106238     0.10400
H1279       H  0.64848763  0.90983647  0.17050217     0.14900
H1280       H  0.56351217  0.93681263  0.12262703     0.00700
H1281       H  0.58785458  0.91220468  0.28493052     0.15200
H1282       H  0.58608475  0.85103706  0.17223768     0.15000
N1283       N  0.99867710  0.88189073  0.08848280    -0.36300
N1284       N  0.95511756  0.87878326  0.00589147    -0.56800
N1285       N  0.99766951  0.88237351  0.92227714    -0.36300
N1286       N  0.54109459  0.87822593  0.00343370    -0.56800
C1287       C  0.97578097  0.87354995  0.11717821     0.27300
C1288       C  0.52198308  0.87424882  0.11525493     0.27300
C1289       C  0.97441324  0.87483045  0.89379512     0.27300
C1290       C  0.52013233  0.87357066  0.89200337     0.27300
C1291       C  0.93811503  0.87742213  0.04956958     0.35900
C1292       C  0.93754169  0.87814036  0.96292816     0.35900
C1293       C  0.55880301  0.87821536  0.04622572     0.35900
C1294       C  0.55800089  0.87749316  0.95957581     0.35900
C1295       C  0.98444758  0.85917221  0.16273406    -0.21600
C1296       C  0.51391810  0.85997731  0.16131822    -0.21600
C1297       C  0.98252772  0.86120200  0.84708706    -0.21600
C1298       C  0.51143133  0.86016776  0.84542833    -0.21600
C1299       C  0.91021777  0.87365751  0.03436321    -0.22600
C1300       C  0.90984993  0.87410032  0.97920478    -0.22600
C1301       C  0.58658621  0.87523025  0.02969209    -0.22600
C1302       C  0.58607354  0.87476096  0.97453856    -0.22600
C1303       C  0.94736918  0.87888789  0.10314415    -0.18000
C1304       C  0.55020489  0.88002254  0.10017156    -0.18000
C1305       C  0.54855061  0.87886529  0.90606034    -0.18000
C1306       C  0.94618195  0.88029836  0.90904335    -0.18000
H1307       H  0.97097632  0.84940531  0.19276441     0.14900
H1308       H  0.52777917  0.85049258  0.19103205     0.14900
H1309       H  0.96870125  0.85203387  0.81696383     0.14900
H1310       H  0.52487754  0.85097902  0.81472132     0.14900
H1311       H  0.89241860  0.86937565  0.06059364     0.13200
H1312       H  0.89171571  0.87016494  0.95361834     0.13200
H1313       H  0.60492060  0.87201379  0.05512508     0.13200
H1314       H  0.60395791  0.87121553  0.94813194     0.13200
H1315       H  0.99846444  0.89416162  0.05368421     0.26500
H1316       H  0.99791248  0.89404769  0.95777916     0.26500
C1317       C  0.60709527  0.60878235  0.21107380     0.86800
C1318       C  0.58662800  0.62613540  0.17554038    -0.53400
C1319       C  0.56959171  0.60971038  0.14385090     0.09700
C1320       C  0.57474252  0.57754566  0.15092484     0.20700
C1321       C  0.58794400  0.58836486  0.24320830    -0.54200
C1322       C  0.57096309  0.57186776  0.21159934     0.09800
C1323       C  0.62384196  0.58973939  0.17183493    -0.53700
C1324       C  0.60680155  0.57330396  0.14013119     0.10400
H1325       H  0.58606614  0.64917412  0.17468601     0.14900
H1326       H  0.56086625  0.56414989  0.12514311     0.00700
H1327       H  0.58756133  0.58731450  0.28678776     0.15200
H1328       H  0.64690938  0.58894561  0.16997332     0.15000
N1329       N  0.95494136  0.99991968  0.22944757    -0.36300
N1330       N  0.99871319  0.95670960  0.23415514    -0.56800
N1331       N  0.54286815  0.99992295  0.22565698    -0.36300
N1332       N  0.99735447  0.54317171  0.23513171    -0.56800
C1333       C  0.93936756  0.97683652  0.24258369     0.27300
C1334       C  0.93802674  0.52299658  0.24266573     0.27300
C1335       C  0.55792153  0.97689199  0.24103779     0.27300
C1336       C  0.55743426  0.52300245  0.24144607     0.27300
C1337       C  0.97574443  0.93947768  0.23425538     0.35900
C1338       C  0.52197730  0.93953742  0.23263849     0.35900
C1339       C  0.97439294  0.56040093  0.23624131     0.35900
C1340       C  0.52087089  0.56032386  0.23596165     0.35900
C1341       C  0.91399047  0.98524661  0.26569507    -0.21600
C1342       C  0.91285970  0.51456243  0.26653185    -0.21600
C1343       C  0.58215268  0.98526954  0.26817955    -0.21600
C1344       C  0.58314249  0.51458656  0.26314876    -0.21600
C1345       C  0.98410684  0.91150114  0.23753709    -0.22600
C1346       C  0.51366954  0.91159347  0.23672565    -0.22600
C1347       C  0.98277127  0.58828759  0.24161893    -0.22600
C1348       C  0.51250950  0.58823197  0.24086680    -0.22600
C1349       C  0.94724796  0.94852616  0.23241136    -0.18000
C1350       C  0.94591680  0.55136896  0.23297655    -0.18000
C1351       C  0.54935496  0.55134944  0.23231974    -0.18000
C1352       C  0.55040541  0.94864095  0.23000951    -0.18000
H1353       H  0.89736212  0.97164862  0.28123551     0.14900
H1354       H  0.89642352  0.52815771  0.28278779     0.14900
H1355       H  0.59797220  0.97165007  0.28643621     0.14900
H1356       H  0.59992094  0.52818288  0.27809300     0.14900
H1357       H  0.97040804  0.89329852  0.24276216     0.13200
H1358       H  0.52743035  0.89345723  0.24207051     0.13200
H1359       H  0.96907923  0.60641431  0.24778976     0.13200
H1360       H  0.52621854  0.60639104  0.24649020     0.13200
H1361       H  0.97413236  0.99992599  0.20872891     0.26500
H1362       H  0.52441437  0.99992251  0.20248442     0.26500
N1363       N  0.62357677  0.99996910  0.08677787    -0.36300
N1364       N  0.61631094  0.54426410  0.00409802    -0.56800
N1365       N  0.61350363  0.99999619  0.92321578    -0.36300
N1366       N  0.61681915  0.95560664  0.00509429    -0.56800
C1367       C  0.61835255  0.52308435  0.11792935     0.27300
C1368       C  0.62253126  0.97679796  0.11876478     0.27300
C1369       C  0.61951034  0.52314013  0.88995152     0.27300
C1370       C  0.61612978  0.97688442  0.89143824     0.27300
C1371       C  0.62318502  0.55970263  0.04777375     0.35900
C1372       C  0.62428398  0.55953600  0.96082148     0.35900
C1373       C  0.62556872  0.94031791  0.04774529     0.35900
C1374       C  0.62289086  0.94017964  0.96101060     0.35900
C1375       C  0.62513730  0.51459852  0.16942829    -0.21600
C1376       C  0.62343993  0.98530859  0.17172268    -0.21600
C1377       C  0.62020681  0.51466606  0.83693515    -0.21600
C1378       C  0.62088970  0.98539132  0.83919719    -0.21600
C1379       C  0.63669077  0.58445624  0.03240581    -0.22600
C1380       C  0.63730121  0.58439396  0.97693298    -0.22600
C1381       C  0.63812657  0.91537292  0.03085086    -0.22600
C1382       C  0.63656138  0.91535046  0.97546496    -0.22600
C1383       C  0.61718878  0.55162299  0.10106084    -0.18000
C1384       C  0.62102307  0.94822976  0.10151695    -0.18000
C1385       C  0.61585633  0.94830003  0.90824428    -0.18000
C1386       C  0.61875490  0.55165220  0.90726259    -0.18000
H1387       H  0.63110752  0.52816732  0.20260006     0.14900
H1388       H  0.62546606  0.97163580  0.20631979     0.14900
H1389       H  0.62235643  0.52833025  0.80234391     0.14900
H1390       H  0.62581995  0.97182474  0.80544213     0.14900
H1391       H  0.64557175  0.60055625  0.05847592     0.13200
H1392       H  0.64654953  0.60052062  0.95136480     0.13200
H1393       H  0.64768892  0.89917184  0.05583202     0.13200
H1394       H  0.64492208  0.89922183  0.94885892     0.13200
H1395       H  0.62411820  0.99997497  0.04545419     0.26500
H1396       H  0.60904342  0.99998881  0.96376846     0.26500
N1397       N  0.99804323  0.61842600  0.08810351    -0.36300
N1398       N  0.54100129  0.62180513  0.00565369    -0.56800
N1399       N  0.99782463  0.61693637  0.92202153    -0.36300
N1400       N  0.95484140  0.62117546  0.00522674    -0.56800
C1401       C  0.52105850  0.62627332  0.11734357     0.27300
C1402       C  0.97494176  0.62583751  0.11711663     0.27300
C1403       C  0.52080690  0.62554360  0.89407591     0.27300
C1404       C  0.97473611  0.62531566  0.89388268     0.27300
C1405       C  0.55835052  0.62232088  0.04892525     0.35900
C1406       C  0.55826470  0.62193464  0.96226539     0.35900
C1407       C  0.93759049  0.62168187  0.04864572     0.35900
C1408       C  0.93745290  0.62121320  0.96198208     0.35900
C1409       C  0.51262410  0.63967332  0.16407607    -0.21600
C1410       C  0.98330066  0.63914894  0.16400720    -0.21600
C1411       C  0.51233137  0.63926058  0.84769092    -0.21600
C1412       C  0.98310227  0.64004131  0.84852876    -0.21600
C1413       C  0.58626670  0.62503345  0.03304595    -0.22600
C1414       C  0.58622189  0.62476824  0.97787915    -0.22600
C1415       C  0.90962434  0.62428575  0.03296109    -0.22600
C1416       C  0.90953424  0.62398035  0.97781122    -0.22600
C1417       C  0.54938399  0.62094699  0.10271413    -0.18000
C1418       C  0.94663060  0.62035849  0.10242058    -0.18000
C1419       C  0.94643510  0.61961796  0.90824568    -0.18000
C1420       C  0.54916068  0.62020857  0.90860460    -0.18000
H1421       H  0.52624192  0.64880571  0.19457350     0.14900
H1422       H  0.96963036  0.64811095  0.19459571     0.14900
H1423       H  0.52592635  0.64868387  0.81746846     0.14900
H1424       H  0.96944319  0.64991899  0.81893962     0.14900
H1425       H  0.60439575  0.62849921  0.05888245     0.13200
H1426       H  0.60432191  0.62798508  0.95184853     0.13200
H1427       H  0.89153377  0.62770405  0.05891580     0.13200
H1428       H  0.89137734  0.62717223  0.95192266     0.13200
H1429       H  0.99807181  0.60689879  0.05244879     0.26500
H1430       H  0.99785814  0.60449584  0.95662987     0.26500
C1431       C  0.88845863  0.60904560  0.21016599     0.86800
C1432       C  0.87171273  0.59006773  0.17089295    -0.53400
C1433       C  0.88872791  0.57334369  0.13974764     0.09700
C1434       C  0.92079528  0.57729339  0.15096750     0.20700
C1435       C  0.90726495  0.58851976  0.24287664    -0.54200
C1436       C  0.92426194  0.57174896  0.21175954     0.09800
C1437       C  0.90926066  0.62607756  0.17478748    -0.53700
C1438       C  0.92631238  0.60939340  0.14363974     0.10400
H1439       H  0.84864645  0.58949124  0.16865490     0.14900
H1440       H  0.93464083  0.56369005  0.12552059     0.00700
H1441       H  0.90748654  0.58768165  0.28647062     0.15200
H1442       H  0.90998972  0.64910755  0.17354317     0.15000
N1443       N  0.88014354  0.49993084  0.08644007    -0.36300
N1444       N  0.87896735  0.54431164  0.00405464    -0.54600
N1445       N  0.87392241  0.49995616  0.92210274    -0.36300
N1446       N  0.87845726  0.95582432  0.00417849    -0.56800
C1447       C  0.87737358  0.52304782  0.11807655     0.27300
C1448       C  0.87893441  0.97681759  0.11778862     0.27300
C1449       C  0.87549558  0.52309690  0.89018256     0.27300
C1450       C  0.87409907  0.97683676  0.89058225     0.27300
C1451       C  0.87199762  0.55963527  0.04782015     0.35900
C1452       C  0.87079891  0.55955602  0.96089538     0.35900
C1453       C  0.87295800  0.94004781  0.04807730     0.35900
C1454       C  0.87066490  0.94020240  0.96128570     0.35900
C1455       C  0.87220415  0.51455545  0.17023708    -0.21600
C1456       C  0.87314349  0.98529497  0.16971087    -0.21600
C1457       C  0.87561794  0.51459882  0.83722020    -0.21600
C1458       C  0.87446507  0.98535935  0.83764656    -0.21600
C1459       C  0.85838824  0.58436256  0.03259939    -0.22600
C1460       C  0.85771251  0.58435291  0.97713513    -0.22600
C1461       C  0.86047126  0.91467482  0.03327105    -0.22600
C1462       C  0.85917559  0.91470281  0.97787198    -0.22600
C1463       C  0.87821744  0.55158592  0.10102928    -0.18000
C1464       C  0.87964409  0.94824240  0.10096436    -0.18000
C1465       C  0.87541998  0.94825674  0.90762949    -0.18000
C1466       C  0.87621090  0.55166257  0.90733805    -0.18000
H1467       H  0.86722239  0.52814359  0.20394351     0.14900
H1468       H  0.86768684  0.97171768  0.20318027     0.14900
H1469       H  0.87389586  0.52828019  0.80260528     0.14900
H1470       H  0.87319999  0.97168361  0.80296241     0.14900
H1471       H  0.84954074  0.60044392  0.05874966     0.13200
H1472       H  0.84840243  0.60048470  0.95166543     0.13200
H1473       H  0.85267500  0.89817807  0.05967344     0.13200
H1474       H  0.85044041  0.89814224  0.95266734     0.13200
H1475       H  0.88493627  0.49993912  0.04605662     0.26500
H1476       H  0.87242810  0.49994956  0.96333296     0.26500
C1477       C  0.82582478  0.82831144  0.66868593    -0.18200
C1478       C  0.83958551  0.84165746  0.70088751     0.05900
C1479       C  0.85637434  0.85800078  0.73643343     0.07700
C1480       C  0.87094141  0.87251542  0.76540802    -0.19000
C1481       C  0.82727341  0.67324239  0.66880059    -0.18200
C1482       C  0.84076544  0.65943932  0.70071877     0.05900
C1483       C  0.85699462  0.64237783  0.73598781     0.07700
C1484       C  0.87118991  0.62742839  0.76483057    -0.19000
C1485       C  0.66934542  0.82815235  0.66846073    -0.18200
C1486       C  0.65583083  0.84196178  0.70035682     0.05900
C1487       C  0.63934392  0.85883043  0.73556649     0.07700
C1488       C  0.62472999  0.87344939  0.76429002    -0.19000
C1489       C  0.82521484  0.82907842  0.34060094    -0.18200
C1490       C  0.83895071  0.84291530  0.30904348     0.05900
C1491       C  0.85592443  0.85945151  0.27402064     0.07700
C1492       C  0.87090988  0.87367005  0.24520907    -0.19000
C1493       C  0.66980266  0.67196902  0.66950258    -0.18200
C1494       C  0.65592719  0.65827684  0.70107416     0.05900
C1495       C  0.63897810  0.64164639  0.73598121     0.07700
C1496       C  0.62421933  0.62708891  0.76460050    -0.19000
C1497       C  0.62538797  0.87251426  0.24409025    -0.18200
C1498       C  0.63972473  0.85763568  0.27286297     0.05900
C1499       C  0.65622424  0.84058304  0.30777119     0.07700
C1500       C  0.66985809  0.82673876  0.33944789    -0.19000
C1501       C  0.82580266  0.67196092  0.34108122    -0.18200
C1502       C  0.83918827  0.65824298  0.30879379     0.05900
C1503       C  0.85559709  0.64157744  0.27300587     0.07700
C1504       C  0.87016120  0.62704099  0.24397263    -0.19000
C1505       C  0.67006178  0.67087638  0.34293029    -0.18200
C1506       C  0.65650478  0.65718331  0.31087441     0.05900
C1507       C  0.63995594  0.64072521  0.27498701     0.07700
C1508       C  0.62537201  0.62645304  0.24552634    -0.19000
loop_ 
_geom_bond_atom_site_label_1 
_geom_bond_atom_site_label_2 
_geom_bond_distance 
_geom_bond_site_symmetry_2 
_ccdc_geom_bond_type 
N1            N2   1.322       .  A
N1            N7   1.316       .  A
N1          Mn30   2.209       .  S
N2            C9   1.352       .  A
N3            N5   1.317       .  A
N3            N4   1.321       .  A
N3          Mn19   2.206       .  S
N4           C10   1.351       .  A
N5            N6   1.322       .  A
N5          Mn30   2.209       .  S
N6           C10   1.352       .  A
N7            N8   1.321       .  A
N7          Mn19   2.201       .  S
N8            C9   1.351       .  A
C9          C369   1.440       .  S
C10         C354   1.440       .  S
N11          N17   1.317       .  A
N11          N12   1.321       .  A
N11         Mn41   2.205       .  S
N12          C20   1.351       .  A
N13          N14   1.321       .  A
N13          N15   1.317       .  A
N13         Mn19   2.203       .  S
N14          C21   1.351       .  A
N15          N16   1.321       .  A
N15         Mn41   2.204       .  S
N16          C21   1.351       .  A
N17          N18   1.321       .  A
N17         Mn19   2.203       .  S
N18          C20   1.351       .  A
Mn19        Cl43   2.548       .  S
C20         C362   1.437       .  S
C21         C374   1.437       .  S
N22          N23   1.321       .  A
N22          N28   1.317       .  A
N22         Mn30   2.206       .  S
N23          C31   1.351       .  A
N24          N26   1.317       .  A
N24          N25   1.322       .  A
N24         Mn42   2.207       .  S
N25          C32   1.351       .  A
N26          N27   1.321       .  A
N26         Mn30   2.208       .  S
N27          C32   1.351       .  A
N28          N29   1.321       .  A
N28         Mn42   2.203       .  S
N29          C31   1.351       .  A
Mn30        Cl43   2.550       .  S
C31         C346   1.438       .  S
C32         C358   1.439       .  S
N33          N34   1.321       .  A
N33          N39   1.316       .  A
N33         Mn41   2.204       .  S
N34          C44   1.351       .  A
N35          N36   1.321       .  A
N35          N37   1.317       .  A
N35         Mn42   2.205       .  S
N36          C45   1.351       .  A
N37          N38   1.321       .  A
N37         Mn41   2.205       .  S
N38          C45   1.351       .  A
N39          N40   1.321       .  A
N39         Mn42   2.206       .  S
N40          C44   1.351       .  A
Mn41        Cl43   2.552       .  S
Mn42        Cl43   2.548       .  S
C44         C370   1.438       .  S
C45         C350   1.437       .  S
C46          C47   1.541       .  S
C46          C52   1.540       .  S
C46          C50   1.541       .  S
C46         C349   1.470       .  S
C47          H54   1.086       .  S
C47          C48   1.364       .  D
C48          C49   1.549       .  S
C48         C334   1.498       .  S
C49          C53   1.547       .  S
C49          C51   1.548       .  S
C49          H55   1.111       .  S
C50          H56   1.086       .  S
C50          C51   1.364       .  D
C51         C114   1.496       .  S
C52          H57   1.086       .  S
C52          C53   1.364       .  D
C53         C175   1.495       .  S
C58          C59   1.541       .  S
C58          C64   1.541       .  S
C58          C62   1.539       .  S
C58         C353   1.468       .  S
C59          H66   1.086       .  S
C59          C60   1.364       .  D
C60          C61   1.544       .  S
C60         C115   1.493       .  S
C61          C65   1.545       .  S
C61          C63   1.542       .  S
C61          H67   1.112       .  S
C62          H68   1.086       .  S
C62          C63   1.363       .  D
C63         C335   1.487       .  S
C64          H69   1.086       .  S
C64          C65   1.364       .  D
C65         C288   1.495       .  S
C70          C71   1.541       .  S
C70          C76   1.539       .  S
C70          C74   1.542       .  S
C70         C357   1.471       .  S
C71          H78   1.086       .  S
C71          C72   1.364       .  D
C72          C73   1.547       .  S
C72         C174   1.495       .  S
C73          C77   1.548       .  S
C73          C75   1.548       .  S
C73          H79   1.111       .  S
C74          H80   1.086       .  S
C74          C75   1.365       .  D
C75         C117   1.497       .  S
C76          H81   1.086       .  S
C76          C77   1.363       .  D
C77         C254   1.495       .  S
C82          C83   1.539       .  S
C82          C88   1.539       .  S
C82          C86   1.542       .  S
C82         C365   1.469       .  S
C83          H90   1.086       .  S
C83          C84   1.363       .  D
C84          C85   1.549       .  S
C84         C255   1.496       .  S
C85          C89   1.548       .  S
C85          C87   1.548       .  S
C85          H91   1.111       .  S
C86          H92   1.086       .  S
C86          C87   1.365       .  D
C87         C116   1.498       .  S
C88          H93   1.086       .  S
C88          C89   1.363       .  D
C89         C289   1.494       .  S
N94          C98   1.351       .  A
N94         C476   1.351       .  A
N94         H126   1.042       .  S
N95         C102   1.351       .  A
N95         C857   1.351       .  A
N96         C100   1.350       .  A
N96         C478   1.351       .  A
N96         H127   1.042       .  S
N97         C104   1.351       .  A
N97         C859   1.351       .  A
C98         C106   1.382       .  A
C98         C114   1.404       .  A
C99         N471   1.351   1_545  A
C99         C115   1.406       .  A
C99         C107   1.382       .  A
C100        C108   1.382       .  A
C100        C117   1.404       .  A
C101        N473   1.351   1_545  A
C101        C116   1.405       .  A
C101        C109   1.383       .  A
C102        C114   1.404       .  A
C102        C110   1.377       .  A
C103        N849   1.352   1_455  A
C103        C117   1.405       .  A
C103        C111   1.376       .  A
C104        C112   1.377       .  A
C104        C115   1.406       .  A
C105        N851   1.352   1_455  A
C105        C113   1.377       .  A
C105        C116   1.405       .  A
C106        C484   1.381       .  A
C106        H118   1.082       .  S
C107        C483   1.381   1_545  A
C107        H119   1.082       .  S
C108        C486   1.381       .  A
C108        H120   1.082       .  S
C109        C485   1.382   1_545  A
C109        H121   1.082       .  S
C110        C865   1.373       .  A
C110        H122   1.080       .  S
C111        C864   1.373   1_455  A
C111        H123   1.080       .  S
C112        C867   1.372       .  A
C112        H124   1.080       .  S
C113        C866   1.373   1_455  A
C113        H125   1.080       .  S
C128        C129   1.541       .  S
C128        C134   1.540       .  S
C128        C132   1.542       .  S
C128        C361   1.470       .  S
C129        H136   1.086       .  S
C129        C130   1.364       .  D
C130        C131   1.543       .  S
C130        C218   1.493       .  S
C131        C135   1.545       .  S
C131        C133   1.543       .  S
C131        H137   1.112       .  S
C132        H138   1.086       .  S
C132        C133   1.365       .  D
C133        C333   1.492       .  S
C134        H139   1.086       .  S
C134        C135   1.363       .  D
C135        C172   1.492       .  S
C140        C141   1.543       .  S
C140        C146   1.542       .  S
C140        C144   1.540       .  S
C140        C366   1.472       .  S
C141        H148   1.086       .  S
C141        C142   1.366       .  D
C142        C143   1.544       .  S
C142        C253   1.493       .  S
C143        C147   1.544       .  S
C143        C145   1.545       .  S
C143        H149   1.112       .  S
C144        H150   1.086       .  S
C144        C145   1.363       .  D
C145        C221   1.494       .  S
C146        H151   1.086       .  S
C146        C147   1.365       .  D
C147        C173   1.493       .  S
N152        C156   1.350       .  A
N152        C911   1.350       .  A
N152        H184   1.041       .  S
N153        C160   1.350       .  A
N153        C161   1.351   1_554  A
N154        C158   1.351       .  A
N154        C913   1.350       .  A
N154        H185   1.041       .  S
N155        C162   1.351       .  A
N155        C163   1.351   1_554  A
C156        C164   1.382       .  A
C156        C172   1.403       .  A
C157        N906   1.350   1_455  A
C157        C173   1.403       .  A
C157        C165   1.381       .  A
C158        C166   1.382       .  A
C158        C175   1.404       .  A
C159        N908   1.350   1_455  A
C159        C174   1.403       .  A
C159        C167   1.382       .  A
C160        C172   1.404       .  A
C160        C168   1.376       .  A
C161        C175   1.404       .  A
C161        C169   1.376       .  A
C162        C170   1.376       .  A
C162        C173   1.405       .  A
C163        C171   1.377       .  A
C163        C174   1.404       .  A
C164        C919   1.380       .  A
C164        H176   1.082       .  S
C165        C918   1.380   1_455  A
C165        H177   1.082       .  S
C166        C921   1.381       .  A
C166        H178   1.082       .  S
C167        C920   1.381   1_455  A
C167        H179   1.082       .  S
C168        C169   1.372   1_554  A
C168        H180   1.080       .  S
C169        H181   1.080       .  S
C170        C171   1.373   1_554  A
C170        H182   1.080       .  S
C171        H183   1.080       .  S
C186        C187   1.540       .  S
C186        C192   1.541       .  S
C186        C190   1.542       .  S
C186        C377   1.470       .  S
C187        H194   1.086       .  S
C187        C188   1.363       .  D
C188        C189   1.544       .  S
C188        C286   1.493       .  S
C189        C193   1.544       .  S
C189        C191   1.543       .  S
C189        H195   1.111       .  S
C190        H196   1.086       .  S
C190        C191   1.365       .  D
C191        C220   1.494       .  S
C192        H197   1.086       .  S
C192        C193   1.365       .  D
C193        C252   1.491       .  S
N198        C202   1.351       .  A
N198        C580   1.351       .  A
N198        H230   1.039       .  S
N199        C206   1.351       .  A
N199        C961   1.351       .  A
N200        C204   1.351       .  A
N200        C582   1.351       .  A
N200        H231   1.039       .  S
N201        C208   1.351       .  A
N201        C963   1.351       .  A
C202        C210   1.382       .  A
C202        C218   1.406       .  A
C203        N575   1.351   1_545  A
C203        C219   1.405       .  A
C203        C211   1.382       .  A
C204        C212   1.382       .  A
C204        C221   1.407       .  A
C205        N577   1.351   1_545  A
C205        C220   1.406       .  A
C205        C213   1.381       .  A
C206        C218   1.406       .  A
C206        C214   1.378       .  A
C207        N953   1.351   1_455  A
C207        C221   1.407       .  A
C207        C215   1.378       .  A
C208        C216   1.377       .  A
C208        C219   1.405       .  A
C209        N955   1.351   1_455  A
C209        C217   1.377       .  A
C209        C220   1.406       .  A
C210        C588   1.381       .  A
C210        H222   1.082       .  S
C211        C587   1.381   1_545  A
C211        H223   1.082       .  S
C212        C590   1.381       .  A
C212        H224   1.082       .  S
C213        C589   1.380   1_545  A
C213        H225   1.082       .  S
C214        C969   1.373       .  A
C214        H226   1.080       .  S
C215        C968   1.374   1_455  A
C215        H227   1.080       .  S
C216        C971   1.373       .  A
C216        H228   1.080       .  S
C217        C970   1.373   1_455  A
C217        H229   1.080       .  S
C219        C305   1.495       .  S
N232        C237   1.351       .  A
N232        C613   1.351       .  A
N232        H264   1.033       .  S
N233        C240   1.348       .  A
N233        C241   1.349   1_554  A
N234        C239   1.351       .  A
N234        C615   1.351       .  A
N234        H265   1.030       .  S
N235        C242   1.348       .  A
N235        C243   1.349   1_554  A
C236        N609   1.350   1_545  A
C236        C244   1.381       .  A
C236        C252   1.410       .  A
C237        C253   1.409       .  A
C237        C245   1.380       .  A
C238        N611   1.351   1_545  A
C238        C246   1.378       .  A
C238        C255   1.413       .  A
C239        C254   1.412       .  A
C239        C247   1.378       .  A
C240        C252   1.408       .  A
C240        C248   1.381       .  A
C241        C255   1.408       .  A
C241        C249   1.381       .  A
C242        C250   1.381       .  A
C242        C253   1.409       .  A
C243        C251   1.380       .  A
C243        C254   1.408       .  A
C244        C622   1.380   1_545  A
C244        H256   1.081       .  S
C245        C621   1.378       .  A
C245        H257   1.081       .  S
C246        C624   1.379   1_545  A
C246        H258   1.079       .  S
C247        C623   1.378       .  A
C247        H259   1.079       .  S
C248        C249   1.381   1_554  A
C248        H260   1.082       .  S
C249        H261   1.082       .  S
C250        C251   1.381   1_554  A
C250        H262   1.082       .  S
C251        H263   1.082       .  S
N266        C271   1.350       .  A
N266       C1024   1.351       .  A
N266        H298   1.041       .  S
N267        C274   1.351       .  A
N267        C275   1.351   1_554  A
N268        C273   1.350       .  A
N268       C1026   1.350       .  A
N268        H299   1.041       .  S
N269        C276   1.350       .  A
N269        C277   1.352   1_554  A
C270       N1020   1.350   1_455  A
C270        C278   1.382       .  A
C270        C286   1.402       .  A
C271        C287   1.405       .  A
C271        C279   1.382       .  A
C272       N1022   1.350   1_455  A
C272        C280   1.382       .  A
C272        C289   1.404       .  A
C273        C288   1.403       .  A
C273        C281   1.381       .  A
C274        C286   1.404       .  A
C274        C282   1.376       .  A
C275        C289   1.405       .  A
C275        C283   1.377       .  A
C276        C284   1.377       .  A
C276        C287   1.405       .  A
C277        C285   1.376       .  A
C277        C288   1.405       .  A
C278       C1033   1.381   1_455  A
C278        H290   1.082       .  S
C279       C1032   1.381       .  A
C279        H291   1.082       .  S
C280       C1035   1.381   1_455  A
C280        H292   1.082       .  S
C281       C1034   1.380       .  A
C281        H293   1.082       .  S
C282        C283   1.372   1_554  A
C282        H294   1.080       .  S
C283        H295   1.080       .  S
C284        C285   1.374   1_554  A
C284        H296   1.080       .  S
C285        H297   1.080       .  S
C287        C307   1.495       .  S
C300        C301   1.540       .  S
C300        C306   1.540       .  S
C300        C304   1.541       .  S
C300        C373   1.470       .  S
C301        H308   1.086       .  S
C301        C302   1.363       .  D
C302        C303   1.548       .  S
C302        C332   1.496       .  S
C303        C307   1.548       .  S
C303        C305   1.547       .  S
C303        H309   1.111       .  S
C304        H310   1.086       .  S
C304        C305   1.364       .  D
C306        H311   1.086       .  S
C306        C307   1.364       .  D
N312        C316   1.351   1_565  A
N312        C694   1.351       .  A
N312        H344   1.027       .  S
N313        C320   1.348       .  A
N313        C321   1.346   1_554  A
N314        C318   1.350   1_565  A
N314        C696   1.350       .  A
N314        H345   1.032       .  S
N315        C322   1.347       .  A
N315        C323   1.348   1_554  A
C316        C324   1.378       .  A
C316        C332   1.414       .  A
C317        N689   1.351       .  A
C317        C333   1.410       .  A
C317        C325   1.380       .  A
C318        C326   1.381       .  A
C318        C335   1.408       .  A
C319        N691   1.353       .  A
C319        C334   1.413       .  A
C319        C327   1.377       .  A
C320        C332   1.408       .  A
C320        C328   1.381       .  A
C321        C335   1.407       .  A
C321        C329   1.381       .  A
C322        C330   1.382       .  A
C322        C333   1.407       .  A
C323        C331   1.381       .  A
C323        C334   1.407       .  A
C324        C702   1.380   1_545  A
C324        H336   1.080       .  S
C325        C701   1.379       .  A
C325        H337   1.081       .  S
C326        C704   1.379   1_545  A
C326        H338   1.081       .  S
C327        C703   1.378       .  A
C327        H339   1.079       .  S
C328        C329   1.380   1_554  A
C328        H340   1.082       .  S
C329        H341   1.082       .  S
C330        C331   1.381   1_554  A
C330        H342   1.082       .  S
C331        H343   1.082       .  S
C346        C347   1.207       .  T
C347        C348   1.414       .  S
C348        C349   1.207       .  T
C350        C351   1.206       .  T
C351        C352   1.412       .  S
C352        C353   1.206       .  T
C354        C355   1.208       .  T
C355        C356   1.415       .  S
C356        C357   1.208       .  T
C358        C359   1.207       .  T
C359        C360   1.415       .  S
C360        C361   1.207       .  T
C362        C363   1.206       .  T
C363        C364   1.413       .  S
C364        C365   1.206       .  T
C366        C367   1.208       .  T
C367        C368   1.416       .  S
C368        C369   1.208       .  T
C370        C371   1.207       .  T
C371        C372   1.414       .  S
C372        C373   1.207       .  T
C374        C375   1.206       .  T
C375        C376   1.413       .  S
C376        C377   1.207       .  T
N378        N379   1.321       .  A
N378        N384   1.317       .  A
N378       Mn407   2.204       .  S
N379        C386   1.351       .  A
N380        N382   1.317       .  A
N380        N381   1.321       .  A
N380       Mn396   2.203       .  S
N381        C387   1.351       .  A
N382        N383   1.321       .  A
N382       Mn407   2.205       .  S
N383        C387   1.351       .  A
N384        N385   1.321       .  A
N384       Mn396   2.203       .  S
N385        C386   1.351       .  A
C386        C746   1.437       .  S
C387        C731   1.437       .  S
N388        N394   1.317       .  A
N388        N389   1.322       .  A
N388       Mn418   2.209       .  S
N389        C397   1.352       .  A
N390        N391   1.321       .  A
N390        N392   1.316       .  A
N390       Mn396   2.201       .  S
N391        C398   1.351       .  A
N392        N393   1.322       .  A
N392       Mn418   2.209       .  S
N393        C398   1.352       .  A
N394        N395   1.321       .  A
N394       Mn396   2.206       .  S
N395        C397   1.351       .  A
Mn396      Cl420   2.548       .  S
C397        C739   1.440       .  S
C398        C751   1.440       .  S
N399        N400   1.321       .  A
N399        N405   1.317       .  A
N399       Mn407   2.205       .  S
N400        C408   1.351       .  A
N401        N403   1.316       .  A
N401        N402   1.321       .  A
N401       Mn419   2.206       .  S
N402        C409   1.351       .  A
N403        N404   1.321       .  A
N403       Mn407   2.204       .  S
N404        C409   1.351       .  A
N405        N406   1.321       .  A
N405       Mn419   2.205       .  S
N406        C408   1.351       .  A
Mn407      Cl420   2.552       .  S
C408        C723   1.436       .  S
C409        C735   1.438       .  S
N410        N411   1.321       .  A
N410        N416   1.317       .  A
N410       Mn418   2.208       .  S
N411        C421   1.351       .  A
N412        N413   1.321       .  A
N412        N414   1.317       .  A
N412       Mn419   2.203       .  S
N413        C422   1.351       .  A
N414        N415   1.321       .  A
N414       Mn418   2.206       .  S
N415        C422   1.351       .  A
N416        N417   1.322       .  A
N416       Mn419   2.207       .  S
N417        C421   1.352       .  A
Mn418      Cl420   2.550       .  S
Mn419      Cl420   2.548       .  S
C421        C747   1.439       .  S
C422        C727   1.438       .  S
C423        C424   1.539       .  S
C423        C429   1.541       .  S
C423        C427   1.541       .  S
C423        C726   1.468       .  S
C424        H431   1.086       .  S
C424        C425   1.363       .  D
C425        C426   1.542       .  S
C425        C711   1.487       .  S
C426        C430   1.545       .  S
C426        C428   1.544       .  S
C426        H432   1.112       .  S
C427        H433   1.086       .  S
C427        C428   1.364       .  D
C428        C491   1.493       .  S
C429        H434   1.086       .  S
C429        C430   1.364       .  D
C430        C552   1.495       .  S
C435        C436   1.541       .  S
C435        C441   1.540       .  S
C435        C439   1.541       .  S
C435        C730   1.470       .  S
C436        H443   1.086       .  S
C436        C437   1.364       .  D
C437        C438   1.547       .  S
C437        C492   1.496       .  S
C438        C442   1.547       .  S
C438        C440   1.549       .  S
C438        H444   1.111       .  S
C439        H445   1.086       .  S
C439        C440   1.364       .  D
C440        C712   1.498       .  S
C441        H446   1.086       .  S
C441        C442   1.364       .  D
C442        C665   1.495       .  S
C447        C448   1.539       .  S
C447        C453   1.539       .  S
C447        C451   1.542       .  S
C447        C734   1.469       .  S
C448        H455   1.086       .  S
C448        C449   1.363       .  D
C449        C450   1.548       .  S
C449        C551   1.494       .  S
C450        C454   1.549       .  S
C450        C452   1.548       .  S
C450        H456   1.111       .  S
C451        H457   1.086       .  S
C451        C452   1.365       .  D
C452        C494   1.498       .  S
C453        H458   1.086       .  S
C453        C454   1.363       .  D
C454        C631   1.496       .  S
C459        C460   1.539       .  S
C459        C465   1.541       .  S
C459        C463   1.542       .  S
C459        C742   1.471       .  S
C460        H467   1.086       .  S
C460        C461   1.363       .  D
C461        C462   1.548       .  S
C461        C632   1.495       .  S
C462        C466   1.547       .  S
C462        C464   1.548       .  S
C462        H468   1.111       .  S
C463        H469   1.086       .  S
C463        C464   1.365       .  D
C464        C493   1.498       .  S
C465        H470   1.086       .  S
C465        C466   1.364       .  D
C466        C666   1.495       .  S
N471        C475   1.351       .  A
N471        H503   1.039       .  S
N472        C479   1.351       .  A
N472       C1234   1.351       .  A
N473        C477   1.351       .  A
N473        H504   1.042       .  S
N474        C481   1.351       .  A
N474       C1236   1.351       .  A
C475        C483   1.382       .  A
C475        C491   1.406       .  A
C476        C492   1.404       .  A
C476        C484   1.382       .  A
C477        C485   1.383       .  A
C477        C494   1.405       .  A
C478        C493   1.404       .  A
C478        C486   1.382       .  A
C479        C491   1.406       .  A
C479        C487   1.377       .  A
C480       N1226   1.352   1_455  A
C480        C494   1.405       .  A
C480        C488   1.377       .  A
C481        C489   1.377       .  A
C481        C492   1.404       .  A
C482       N1228   1.352   1_455  A
C482        C490   1.376       .  A
C482        C493   1.405       .  A
C483        H495   1.082       .  S
C484        H496   1.082       .  S
C485        H497   1.082       .  S
C486        H498   1.082       .  S
C487       C1242   1.372       .  A
C487        H499   1.080       .  S
C488       C1241   1.373   1_455  A
C488        H500   1.080       .  S
C489       C1244   1.373       .  A
C489        H501   1.080       .  S
C490       C1243   1.373   1_455  A
C490        H502   1.080       .  S
C505        C506   1.541       .  S
C505        C511   1.540       .  S
C505        C509   1.540       .  S
C505        C738   1.470       .  S
C506        H513   1.086       .  S
C506        C507   1.364       .  D
C507        C508   1.547       .  S
C507        C595   1.495       .  S
C508        C512   1.548       .  S
C508        C510   1.548       .  S
C508        H514   1.111       .  S
C509        H515   1.086       .  S
C509        C510   1.363       .  D
C510        C710   1.496       .  S
C511        H516   1.086       .  S
C511        C512   1.364       .  D
C512        C549   1.495       .  S
C517        C518   1.541       .  S
C517        C523   1.540       .  S
C517        C521   1.542       .  S
C517        C743   1.470       .  S
C518        H525   1.086       .  S
C518        C519   1.365       .  D
C519        C520   1.544       .  S
C519        C630   1.491       .  S
C520        C524   1.544       .  S
C520        C522   1.543       .  S
C520        H526   1.111       .  S
C521        H527   1.086       .  S
C521        C522   1.365       .  D
C522        C598   1.494       .  S
C523        H528   1.086       .  S
C523        C524   1.363       .  D
C524        C550   1.493       .  S
N529       C1288   1.351       .  A
N529        C533   1.350       .  A
N529        H561   1.041       .  S
N530        C537   1.350       .  A
N530        C538   1.351   1_554  A
N531       C1290   1.350       .  A
N531        C535   1.350       .  A
N531        H562   1.041       .  S
N532        C539   1.351       .  A
N532        C540   1.351   1_554  A
C533        C541   1.382       .  A
C533        C549   1.405       .  A
C534       N1283   1.350   1_455  A
C534        C550   1.402       .  A
C534        C542   1.382       .  A
C535        C543   1.381       .  A
C535        C552   1.403       .  A
C536       N1285   1.350   1_455  A
C536        C551   1.404       .  A
C536        C544   1.382       .  A
C537        C549   1.405       .  A
C537        C545   1.377       .  A
C538        C552   1.405       .  A
C538        C546   1.376       .  A
C539        C547   1.376       .  A
C539        C550   1.404       .  A
C540        C548   1.377       .  A
C540        C551   1.405       .  A
C541       C1296   1.381       .  A
C541        H553   1.082       .  S
C542       C1295   1.381   1_455  A
C542        H554   1.082       .  S
C543       C1298   1.380       .  A
C543        H555   1.082       .  S
C544       C1297   1.381   1_455  A
C544        H556   1.082       .  S
C545        C546   1.374   1_554  A
C545        H557   1.080       .  S
C546        H558   1.080       .  S
C547        C548   1.372   1_554  A
C547        H559   1.080       .  S
C548        H560   1.080       .  S
C563        C564   1.542       .  S
C563        C569   1.543       .  S
C563        C567   1.540       .  S
C563        C754   1.472       .  S
C564        H571   1.086       .  S
C564        C565   1.365       .  D
C565        C566   1.544       .  S
C565        C663   1.493       .  S
C566        C570   1.544       .  S
C566        C568   1.545       .  S
C566        H572   1.112       .  S
C567        H573   1.086       .  S
C567        C568   1.363       .  D
C568        C597   1.495       .  S
C569        H574   1.086       .  S
C569        C570   1.366       .  D
C570        C629   1.493       .  S
N575        C579   1.351       .  A
N575        H607   1.041       .  S
N576        C583   1.351       .  A
N576       C1338   1.351       .  A
N577        C581   1.351       .  A
N577        H608   1.040       .  S
N578        C585   1.351       .  A
N578       C1340   1.351       .  A
C579        C587   1.382       .  A
C579        C595   1.405       .  A
C580        C596   1.406       .  A
C580        C588   1.382       .  A
C581        C589   1.381       .  A
C581        C598   1.406       .  A
C582        C597   1.407       .  A
C582        C590   1.382       .  A
C583        C595   1.405       .  A
C583        C591   1.377       .  A
C584       N1330   1.351   1_455  A
C584        C598   1.406       .  A
C584        C592   1.377       .  A
C585        C593   1.378       .  A
C585        C596   1.406       .  A
C586       N1332   1.351   1_455  A
C586        C594   1.378       .  A
C586        C597   1.407       .  A
C587        H599   1.082       .  S
C588        H600   1.082       .  S
C589        H601   1.082       .  S
C590        H602   1.082       .  S
C591       C1346   1.373       .  A
C591        H603   1.080       .  S
C592       C1345   1.373   1_455  A
C592        H604   1.080       .  S
C593       C1348   1.373       .  A
C593        H605   1.080       .  S
C594       C1347   1.374   1_455  A
C594        H606   1.080       .  S
C596        C682   1.493       .  S
N609        C614   1.350       .  A
N609        H641   1.031       .  S
N610        C617   1.348       .  A
N610        C618   1.348   1_554  A
N611        C616   1.351       .  A
N611        H642   1.029       .  S
N612        C619   1.348       .  A
N612        C620   1.349   1_554  A
C613        C621   1.380       .  A
C613        C629   1.409       .  A
C614        C630   1.410       .  A
C614        C622   1.381       .  A
C615        C623   1.378       .  A
C615        C632   1.412       .  A
C616        C631   1.413       .  A
C616        C624   1.378       .  A
C617        C629   1.409       .  A
C617        C625   1.381       .  A
C618        C632   1.408       .  A
C618        C626   1.380       .  A
C619        C627   1.381       .  A
C619        C630   1.408       .  A
C620        C628   1.381       .  A
C620        C631   1.408       .  A
C621        H633   1.081       .  S
C622        H634   1.081       .  S
C623        H635   1.079       .  S
C624        H636   1.079       .  S
C625        C626   1.381   1_554  A
C625        H637   1.082       .  S
C626        H638   1.082       .  S
C627        C628   1.381   1_554  A
C627        H639   1.082       .  S
C628        H640   1.082       .  S
N643        C648   1.350       .  A
N643       C1401   1.350       .  A
N643        H675   1.041       .  S
N644        C651   1.351       .  A
N644        C652   1.351   1_554  A
N645        C650   1.351       .  A
N645       C1403   1.350       .  A
N645        H676   1.041       .  S
N646        C653   1.350       .  A
N646        C654   1.351   1_554  A
C647       N1397   1.350   1_455  A
C647        C655   1.381       .  A
C647        C663   1.403       .  A
C648        C664   1.403       .  A
C648        C656   1.382       .  A
C649       N1399   1.350   1_455  A
C649        C657   1.382       .  A
C649        C666   1.403       .  A
C650        C665   1.404       .  A
C650        C658   1.382       .  A
C651        C663   1.405       .  A
C651        C659   1.376       .  A
C652        C666   1.404       .  A
C652        C660   1.377       .  A
C653        C661   1.376       .  A
C653        C664   1.404       .  A
C654        C662   1.376       .  A
C654        C665   1.404       .  A
C655       C1410   1.380   1_455  A
C655        H667   1.082       .  S
C656       C1409   1.380       .  A
C656        H668   1.082       .  S
C657       C1412   1.381   1_455  A
C657        H669   1.082       .  S
C658       C1411   1.381       .  A
C658        H670   1.082       .  S
C659        C660   1.373   1_554  A
C659        H671   1.080       .  S
C660        H672   1.080       .  S
C661        C662   1.372   1_554  A
C661        H673   1.080       .  S
C662        H674   1.080       .  S
C664        C684   1.492       .  S
C677        C678   1.542       .  S
C677        C683   1.540       .  S
C677        C681   1.541       .  S
C677        C750   1.470       .  S
C678        H685   1.086       .  S
C678        C679   1.365       .  D
C679        C680   1.543       .  S
C679        C709   1.492       .  S
C680        C684   1.545       .  S
C680        C682   1.543       .  S
C680        H686   1.112       .  S
C681        H687   1.086       .  S
C681        C682   1.364       .  D
C683        H688   1.086       .  S
C683        C684   1.363       .  D
N689        C693   1.351       .  A
N689        H721   1.032       .  S
N690        C697   1.347       .  A
N690        C698   1.348   1_554  A
N691        C695   1.353       .  A
N691        H722   1.031       .  S
N692        C699   1.348       .  A
N692        C700   1.346   1_554  A
C693        C701   1.380       .  A
C693        C709   1.410       .  A
C694        C710   1.414       .  A
C694        C702   1.378       .  A
C695        C703   1.377       .  A
C695        C712   1.413       .  A
C696        C711   1.408       .  A
C696        C704   1.381       .  A
C697        C709   1.407       .  A
C697        C705   1.382       .  A
C698        C712   1.407       .  A
C698        C706   1.381       .  A
C699        C707   1.381       .  A
C699        C710   1.408       .  A
C700        C708   1.381       .  A
C700        C711   1.406       .  A
C701        H713   1.081       .  S
C702        H714   1.080       .  S
C703        H715   1.079       .  S
C704        H716   1.081       .  S
C705        C706   1.381   1_554  A
C705        H717   1.082       .  S
C706        H718   1.082       .  S
C707        C708   1.380   1_554  A
C707        H719   1.082       .  S
C708        H720   1.082       .  S
C723        C724   1.206       .  T
C724        C725   1.412       .  S
C725        C726   1.206       .  T
C727        C728   1.207       .  T
C728        C729   1.414       .  S
C729        C730   1.207       .  T
C731        C732   1.206       .  T
C732        C733   1.413       .  S
C733        C734   1.207       .  T
C735        C736   1.207       .  T
C736        C737   1.414       .  S
C737        C738   1.207       .  T
C739        C740   1.208       .  T
C740        C741   1.415       .  S
C741        C742   1.208       .  T
C743        C744   1.207       .  T
C744        C745   1.413       .  S
C745        C746   1.206       .  T
C747        C748   1.208       .  T
C748        C749   1.415       .  S
C749        C750   1.207       .  T
C751        C752   1.208       .  T
C752        C753   1.416       .  S
C753        C754   1.208       .  T
N755        N756   1.321       .  A
N755        N761   1.316       .  A
N755       Mn784   2.205       .  S
N756        C763   1.351       .  A
N757        N759   1.317       .  A
N757        N758   1.321       .  A
N757       Mn773   2.207       .  S
N758        C764   1.351       .  A
N759        N760   1.322       .  A
N759       Mn784   2.209       .  S
N760        C764   1.352       .  A
N761        N762   1.321       .  A
N761       Mn773   2.204       .  S
N762        C763   1.351       .  A
C763       C1123   1.439       .  S
C764       C1108   1.440       .  S
N765        N771   1.317       .  A
N765        N766   1.321       .  A
N765       Mn795   2.206       .  S
N766        C774   1.351       .  A
N767        N768   1.322       .  A
N767        N769   1.317       .  A
N767       Mn773   2.207       .  S
N768        C775   1.352       .  A
N769        N770   1.321       .  A
N769       Mn795   2.205       .  S
N770        C775   1.351       .  A
N771        N772   1.321       .  A
N771       Mn773   2.205       .  S
N772        C774   1.351       .  A
Mn773      Cl797   2.550       .  S
C774       C1116   1.438       .  S
C775       C1128   1.439       .  S
N776        N777   1.321       .  A
N776        N782   1.317       .  A
N776       Mn784   2.205       .  S
N777        C785   1.351       .  A
N778        N780   1.317       .  A
N778        N779   1.322       .  A
N778       Mn796   2.207       .  S
N779        C786   1.352       .  A
N780        N781   1.321       .  A
N780       Mn784   2.206       .  S
N781        C786   1.351       .  A
N782        N783   1.321       .  A
N782       Mn796   2.206       .  S
N783        C785   1.351       .  A
Mn784      Cl797   2.549       .  S
C785       C1100   1.438       .  S
C786       C1112   1.440       .  S
N787        N788   1.321       .  A
N787        N793   1.316       .  A
N787       Mn795   2.204       .  S
N788        C798   1.351       .  A
N789        N790   1.321       .  A
N789        N791   1.317       .  A
N789       Mn796   2.205       .  S
N790        C799   1.351       .  A
N791        N792   1.322       .  A
N791       Mn795   2.207       .  S
N792        C799   1.352       .  A
N793        N794   1.322       .  A
N793       Mn796   2.209       .  S
N794        C798   1.352       .  A
Mn795      Cl797   2.550       .  S
Mn796      Cl797   2.549       .  S
C798       C1124   1.440       .  S
C799       C1104   1.438       .  S
C800        C801   1.540       .  S
C800        C806   1.541       .  S
C800        C804   1.541       .  S
C800       C1103   1.470       .  S
C801        H808   1.086       .  S
C801        C802   1.364       .  D
C802        C803   1.548       .  S
C802       C1088   1.495       .  S
C803        C807   1.547       .  S
C803        C805   1.548       .  S
C803        H809   1.111       .  S
C804        H810   1.086       .  S
C804        C805   1.364       .  D
C805        C868   1.496       .  S
C806        H811   1.086       .  S
C806        C807   1.364       .  D
C807        C929   1.496       .  S
C812        C813   1.542       .  S
C812        C818   1.540       .  S
C812        C816   1.539       .  S
C812       C1107   1.470       .  S
C813        H820   1.086       .  S
C813        C814   1.365       .  D
C814        C815   1.549       .  S
C814        C869   1.499       .  S
C815        C819   1.548       .  S
C815        C817   1.549       .  S
C815        H821   1.111       .  S
C816        H822   1.086       .  S
C816        C817   1.363       .  D
C817       C1089   1.496       .  S
C818        H823   1.086       .  S
C818        C819   1.364       .  D
C819       C1042   1.496       .  S
C824        C825   1.540       .  S
C824        C830   1.539       .  S
C824        C828   1.543       .  S
C824       C1111   1.471       .  S
C825        H832   1.086       .  S
C825        C826   1.364       .  D
C826        C827   1.546       .  S
C826        C928   1.493       .  S
C827        C831   1.547       .  S
C827        C829   1.547       .  S
C827        H833   1.111       .  S
C828        H834   1.086       .  S
C828        C829   1.365       .  D
C829        C871   1.498       .  S
C830        H835   1.086       .  S
C830        C831   1.363       .  D
C831       C1008   1.493       .  S
C836        C837   1.541       .  S
C836        C842   1.540       .  S
C836        C840   1.542       .  S
C836       C1119   1.470       .  S
C837        H844   1.086       .  S
C837        C838   1.365       .  D
C838        C839   1.543       .  S
C838       C1009   1.491       .  S
C839        C843   1.545       .  S
C839        C841   1.544       .  S
C839        H845   1.112       .  S
C840        H846   1.086       .  S
C840        C841   1.364       .  D
C841        C870   1.494       .  S
C842        H847   1.086       .  S
C842        C843   1.363       .  D
C843       C1043   1.492       .  S
N848       C1230   1.350       .  A
N848        C852   1.350       .  A
N848        H880   1.042       .  S
N849        C856   1.352       .  A
N850       C1232   1.352       .  A
N850        C854   1.352       .  A
N850        H881   1.042       .  S
N851        C858   1.352       .  A
C852        C860   1.383       .  A
C852        C868   1.405       .  A
C853       N1225   1.351   1_545  A
C853        C869   1.405       .  A
C853        C861   1.382       .  A
C854        C862   1.382       .  A
C854        C871   1.405       .  A
C855       N1227   1.351       .  A
C855        C870   1.407       .  A
C855        C863   1.382       .  A
C856        C868   1.405       .  A
C856        C864   1.377       .  A
C857        C871   1.405       .  A
C857        C865   1.377       .  A
C858        C866   1.377       .  A
C858        C869   1.406       .  A
C859        C867   1.377       .  A
C859        C870   1.405       .  A
C860       C1238   1.382       .  A
C860        H872   1.082       .  S
C861       C1237   1.382   1_545  A
C861        H873   1.082       .  S
C862       C1240   1.381       .  A
C862        H874   1.082       .  S
C863       C1239   1.382   1_545  A
C863        H875   1.082       .  S
C864        H876   1.080       .  S
C865        H877   1.080       .  S
C866        H878   1.080       .  S
C867        H879   1.080       .  S
C882        C883   1.543       .  S
C882        C888   1.541       .  S
C882        C886   1.541       .  S
C882       C1115   1.472       .  S
C883        H890   1.086       .  S
C883        C884   1.365       .  D
C884        C885   1.544       .  S
C884        C972   1.496       .  S
C885        C889   1.545       .  S
C885        C887   1.544       .  S
C885        H891   1.112       .  S
C886        H892   1.086       .  S
C886        C887   1.364       .  D
C887       C1087   1.491       .  S
C888        H893   1.086       .  S
C888        C889   1.364       .  D
C889        C926   1.494       .  S
C894        C895   1.542       .  S
C894        C900   1.542       .  S
C894        C898   1.541       .  S
C894       C1120   1.472       .  S
C895        H902   1.086       .  S
C895        C896   1.365       .  D
C896        C897   1.544       .  S
C896       C1007   1.493       .  S
C897        C901   1.545       .  S
C897        C899   1.544       .  S
C897        H903   1.112       .  S
C898        H904   1.086       .  S
C898        C899   1.364       .  D
C899        C975   1.494       .  S
C900        H905   1.086       .  S
C900        C901   1.365       .  D
C901        C927   1.494       .  S
N906        C910   1.350       .  A
N906        H938   1.040       .  S
N907        C914   1.351       .  A
N907        C915   1.352   1_554  A
N908        C912   1.351       .  A
N908        H939   1.042       .  S
N909        C916   1.351       .  A
N909        C917   1.351   1_554  A
C910        C918   1.382       .  A
C910        C926   1.404       .  A
C911        C927   1.403       .  A
C911        C919   1.382       .  A
C912        C920   1.382       .  A
C912        C929   1.403       .  A
C913        C928   1.404       .  A
C913        C921   1.382       .  A
C914        C926   1.406       .  A
C914        C922   1.377       .  A
C915        C929   1.405       .  A
C915        C923   1.376       .  A
C916        C924   1.376       .  A
C916        C927   1.405       .  A
C917        C925   1.377       .  A
C917        C928   1.405       .  A
C918        H930   1.082       .  S
C919        H931   1.082       .  S
C920        H932   1.082       .  S
C921        H933   1.082       .  S
C922        C923   1.373   1_554  A
C922        H934   1.080       .  S
C923        H935   1.080       .  S
C924        C925   1.373   1_554  A
C924        H936   1.080       .  S
C925        H937   1.080       .  S
C940        C941   1.541       .  S
C940        C946   1.540       .  S
C940        C944   1.541       .  S
C940       C1131   1.471       .  S
C941        H948   1.086       .  S
C941        C942   1.364       .  D
C942        C943   1.549       .  S
C942       C1040   1.498       .  S
C943        C947   1.549       .  S
C943        C945   1.547       .  S
C943        H949   1.111       .  S
C944        H950   1.086       .  S
C944        C945   1.364       .  D
C945        C974   1.496       .  S
C946        H951   1.086       .  S
C946        C947   1.363       .  D
C947       C1006   1.495       .  S
N952       C1334   1.352       .  A
N952        C956   1.352       .  A
N952        H984   1.039       .  S
N953        C960   1.351       .  A
N954       C1336   1.351       .  A
N954        C958   1.351       .  A
N954        H985   1.039       .  S
N955        C962   1.351       .  A
C956        C964   1.382       .  A
C956        C972   1.408       .  A
C957       N1329   1.351   1_545  A
C957        C973   1.407       .  A
C957        C965   1.382       .  A
C958        C966   1.382       .  A
C958        C975   1.407       .  A
C959       N1331   1.351   1_545  A
C959        C974   1.404       .  A
C959        C967   1.382       .  A
C960        C972   1.407       .  A
C960        C968   1.378       .  A
C961        C975   1.407       .  A
C961        C969   1.378       .  A
C962        C970   1.378       .  A
C962        C973   1.406       .  A
C963        C971   1.377       .  A
C963        C974   1.405       .  A
C964       C1342   1.382       .  A
C964        H976   1.082       .  S
C965       C1341   1.381   1_545  A
C965        H977   1.082       .  S
C966       C1344   1.381       .  A
C966        H978   1.082       .  S
C967       C1343   1.381   1_545  A
C967        H979   1.082       .  S
C968        H980   1.080       .  S
C969        H981   1.080       .  S
C970        H982   1.080       .  S
C971        H983   1.080       .  S
C973       C1059   1.493       .  S
N986        C991   1.351       .  A
N986       C1367   1.351       .  A
N986       H1018   1.033       .  S
N987        C994   1.347       .  A
N987        C995   1.347   1_554  A
N988        C993   1.350       .  A
N988       C1369   1.350       .  A
N988       H1019   1.029       .  S
N989        C996   1.347       .  A
N989        C997   1.348   1_554  A
C990       N1363   1.352   1_545  A
C990        C998   1.378       .  A
C990       C1006   1.414       .  A
C991       C1007   1.410       .  A
C991        C999   1.380       .  A
C992       N1365   1.351   1_545  A
C992       C1000   1.379       .  A
C992       C1009   1.410       .  A
C993       C1008   1.411       .  A
C993       C1001   1.379       .  A
C994       C1006   1.406       .  A
C994       C1002   1.381       .  A
C995       C1009   1.407       .  A
C995       C1003   1.382       .  A
C996       C1004   1.382       .  A
C996       C1007   1.408       .  A
C997       C1005   1.381       .  A
C997       C1008   1.408       .  A
C998       C1376   1.380   1_545  A
C998       H1010   1.080       .  S
C999       C1375   1.379       .  A
C999       H1011   1.081       .  S
C1000      C1378   1.378   1_545  A
C1000      H1012   1.081       .  S
C1001      C1377   1.379       .  A
C1001      H1013   1.080       .  S
C1002      C1003   1.381   1_554  A
C1002      H1014   1.082       .  S
C1003      H1015   1.082       .  S
C1004      C1005   1.381   1_554  A
C1004      H1016   1.082       .  S
C1005      H1017   1.082       .  S
N1020      C1025   1.350       .  A
N1020      H1052   1.041       .  S
N1021      C1028   1.352       .  A
N1021      C1029   1.351   1_554  A
N1022      C1027   1.350       .  A
N1022      H1053   1.041       .  S
N1023      C1030   1.351       .  A
N1023      C1031   1.352   1_554  A
C1024      C1032   1.382       .  A
C1024      C1040   1.405       .  A
C1025      C1041   1.403       .  A
C1025      C1033   1.382       .  A
C1026      C1034   1.382       .  A
C1026      C1043   1.403       .  A
C1027      C1042   1.404       .  A
C1027      C1035   1.382       .  A
C1028      C1040   1.405       .  A
C1028      C1036   1.376       .  A
C1029      C1043   1.406       .  A
C1029      C1037   1.377       .  A
C1030      C1038   1.376       .  A
C1030      C1041   1.404       .  A
C1031      C1039   1.376       .  A
C1031      C1042   1.405       .  A
C1032      H1044   1.082       .  S
C1033      H1045   1.082       .  S
C1034      H1046   1.082       .  S
C1035      H1047   1.082       .  S
C1036      C1037   1.373   1_554  A
C1036      H1048   1.080       .  S
C1037      H1049   1.080       .  S
C1038      C1039   1.373   1_554  A
C1038      H1050   1.080       .  S
C1039      H1051   1.080       .  S
C1041      C1061   1.494       .  S
C1054      C1055   1.541       .  S
C1054      C1060   1.542       .  S
C1054      C1058   1.541       .  S
C1054      C1127   1.471       .  S
C1055      H1062   1.086       .  S
C1055      C1056   1.364       .  D
C1056      C1057   1.543       .  S
C1056      C1086   1.491       .  S
C1057      C1061   1.545       .  S
C1057      C1059   1.543       .  S
C1057      H1063   1.112       .  S
C1058      H1064   1.086       .  S
C1058      C1059   1.364       .  D
C1060      H1065   1.086       .  S
C1060      C1061   1.365       .  D
N1066      C1448   1.352       .  A
N1066      C1070   1.352   1_565  A
N1066      H1098   1.033       .  S
N1067      C1074   1.347       .  A
N1067      C1075   1.348   1_554  A
N1068      C1450   1.352       .  A
N1068      C1072   1.352   1_565  A
N1068      H1099   1.031       .  S
N1069      C1076   1.347       .  A
N1069      C1077   1.348   1_554  A
C1070      C1078   1.380       .  A
C1070      C1086   1.410       .  A
C1071      N1443   1.350       .  A
C1071      C1087   1.410       .  A
C1071      C1079   1.380       .  A
C1072      C1080   1.378       .  A
C1072      C1089   1.413       .  A
C1073      N1445   1.351       .  A
C1073      C1088   1.412       .  A
C1073      C1081   1.378       .  A
C1074      C1086   1.407       .  A
C1074      C1082   1.382       .  A
C1075      C1089   1.406       .  A
C1075      C1083   1.380       .  A
C1076      C1084   1.382       .  A
C1076      C1087   1.408       .  A
C1077      C1085   1.381       .  A
C1077      C1088   1.407       .  A
C1078      C1456   1.378   1_545  A
C1078      H1090   1.081       .  S
C1079      C1455   1.380       .  A
C1079      H1091   1.081       .  S
C1080      C1458   1.377   1_545  A
C1080      H1092   1.079       .  S
C1081      C1457   1.378       .  A
C1081      H1093   1.079       .  S
C1082      C1083   1.380   1_554  A
C1082      H1094   1.082       .  S
C1083      H1095   1.082       .  S
C1084      C1085   1.381   1_554  A
C1084      H1096   1.082       .  S
C1085      H1097   1.082       .  S
C1100      C1101   1.207       .  T
C1101      C1102   1.414       .  S
C1102      C1103   1.207       .  T
C1104      C1105   1.207       .  T
C1105      C1106   1.414       .  S
C1106      C1107   1.207       .  T
C1108      C1109   1.208       .  T
C1109      C1110   1.415       .  S
C1110      C1111   1.208       .  T
C1112      C1113   1.208       .  T
C1113      C1114   1.416       .  S
C1114      C1115   1.208       .  T
C1116      C1117   1.207       .  T
C1117      C1118   1.414       .  S
C1118      C1119   1.207       .  T
C1120      C1121   1.208       .  T
C1121      C1122   1.416       .  S
C1122      C1123   1.208       .  T
C1124      C1125   1.208       .  T
C1125      C1126   1.415       .  S
C1126      C1127   1.208       .  T
C1128      C1129   1.207       .  T
C1129      C1130   1.415       .  S
C1130      C1131   1.208       .  T
N1132      N1133   1.321       .  A
N1132      N1138   1.317       .  A
N1132     Mn1161   2.205       .  S
N1133      C1140   1.351       .  A
N1134      N1136   1.317       .  A
N1134      N1135   1.321       .  A
N1134     Mn1150   2.206       .  S
N1135      C1141   1.351       .  A
N1136      N1137   1.321       .  A
N1136     Mn1161   2.206       .  S
N1137      C1141   1.351       .  A
N1138      N1139   1.321       .  A
N1138     Mn1150   2.207       .  S
N1139      C1140   1.352       .  A
C1140      C1500   1.439       .  S
C1141      C1485   1.438       .  S
N1142      N1148   1.317       .  A
N1142      N1143   1.322       .  A
N1142     Mn1172   2.209       .  S
N1143      C1151   1.352       .  A
N1144      N1145   1.321       .  A
N1144      N1146   1.316       .  A
N1144     Mn1150   2.204       .  S
N1145      C1152   1.351       .  A
N1146      N1147   1.321       .  A
N1146     Mn1172   2.205       .  S
N1147      C1152   1.351       .  A
N1148      N1149   1.321       .  A
N1148     Mn1150   2.207       .  S
N1149      C1151   1.351       .  A
Mn1150    Cl1174   2.550       .  S
C1151      C1493   1.440       .  S
C1152      C1505   1.439       .  S
N1153      N1154   1.322       .  A
N1153      N1159   1.317       .  A
N1153     Mn1161   2.207       .  S
N1154      C1162   1.352       .  A
N1155      N1157   1.316       .  A
N1155      N1156   1.322       .  A
N1155     Mn1173   2.209       .  S
N1156      C1163   1.352       .  A
N1157      N1158   1.321       .  A
N1157     Mn1161   2.203       .  S
N1158      C1163   1.351       .  A
N1159      N1160   1.321       .  A
N1159     Mn1173   2.205       .  S
N1160      C1162   1.351       .  A
Mn1161    Cl1174   2.550       .  S
C1162      C1477   1.438       .  S
C1163      C1489   1.439       .  S
N1164      N1165   1.321       .  A
N1164      N1170   1.317       .  A
N1164     Mn1172   2.206       .  S
N1165      C1175   1.351       .  A
N1166      N1167   1.321       .  A
N1166      N1168   1.317       .  A
N1166     Mn1173   2.206       .  S
N1167      C1176   1.351       .  A
N1168      N1169   1.321       .  A
N1168     Mn1172   2.205       .  S
N1169      C1176   1.351       .  A
N1170      N1171   1.322       .  A
N1170     Mn1173   2.207       .  S
N1171      C1175   1.352       .  A
Mn1172    Cl1174   2.549       .  S
Mn1173    Cl1174   2.549       .  S
C1175      C1501   1.440       .  S
C1176      C1481   1.438       .  S
C1177      C1178   1.539       .  S
C1177      C1183   1.540       .  S
C1177      C1181   1.542       .  S
C1177      C1480   1.470       .  S
C1178      H1185   1.086       .  S
C1178      C1179   1.363       .  D
C1179      C1180   1.549       .  S
C1179      C1465   1.496       .  S
C1180      C1184   1.549       .  S
C1180      C1182   1.549       .  S
C1180      H1186   1.111       .  S
C1181      H1187   1.086       .  S
C1181      C1182   1.365       .  D
C1182      C1245   1.499       .  S
C1183      H1188   1.086       .  S
C1183      C1184   1.364       .  D
C1184      C1306   1.496       .  S
C1189      C1190   1.541       .  S
C1189      C1195   1.541       .  S
C1189      C1193   1.540       .  S
C1189      C1484   1.470       .  S
C1190      H1197   1.086       .  S
C1190      C1191   1.364       .  D
C1191      C1192   1.548       .  S
C1191      C1246   1.496       .  S
C1192      C1196   1.547       .  S
C1192      C1194   1.548       .  S
C1192      H1198   1.111       .  S
C1193      H1199   1.086       .  S
C1193      C1194   1.364       .  D
C1194      C1466   1.495       .  S
C1195      H1200   1.086       .  S
C1195      C1196   1.364       .  D
C1196      C1419   1.496       .  S
C1201      C1202   1.540       .  S
C1201      C1207   1.541       .  S
C1201      C1205   1.542       .  S
C1201      C1488   1.470       .  S
C1202      H1209   1.086       .  S
C1202      C1203   1.363       .  D
C1203      C1204   1.544       .  S
C1203      C1305   1.492       .  S
C1204      C1208   1.543       .  S
C1204      C1206   1.544       .  S
C1204      H1210   1.112       .  S
C1205      H1211   1.086       .  S
C1205      C1206   1.364       .  D
C1206      C1248   1.494       .  S
C1207      H1212   1.086       .  S
C1207      C1208   1.365       .  D
C1208      C1385   1.491       .  S
C1213      C1214   1.539       .  S
C1213      C1219   1.540       .  S
C1213      C1217   1.543       .  S
C1213      C1496   1.471       .  S
C1214      H1221   1.086       .  S
C1214      C1215   1.363       .  D
C1215      C1216   1.547       .  S
C1215      C1386   1.493       .  S
C1216      C1220   1.546       .  S
C1216      C1218   1.547       .  S
C1216      H1222   1.111       .  S
C1217      H1223   1.086       .  S
C1217      C1218   1.365       .  D
C1218      C1247   1.498       .  S
C1219      H1224   1.086       .  S
C1219      C1220   1.364       .  D
C1220      C1420   1.493       .  S
N1225      C1229   1.351       .  A
N1225      H1257   1.042       .  S
N1226      C1233   1.352       .  A
N1227      C1231   1.351   1_545  A
N1227      H1258   1.040   1_545  S
N1228      C1235   1.352       .  A
C1229      C1237   1.382       .  A
C1229      C1245   1.405       .  A
C1230      C1246   1.405       .  A
C1230      C1238   1.383       .  A
C1231      C1239   1.382       .  A
C1231      C1248   1.407       .  A
C1232      C1247   1.405       .  A
C1232      C1240   1.382       .  A
C1233      C1245   1.406       .  A
C1233      C1241   1.377       .  A
C1234      C1248   1.405       .  A
C1234      C1242   1.377       .  A
C1235      C1243   1.377       .  A
C1235      C1246   1.405       .  A
C1236      C1244   1.377       .  A
C1236      C1247   1.405       .  A
C1237      H1249   1.082       .  S
C1238      H1250   1.082       .  S
C1239      H1251   1.082       .  S
C1240      H1252   1.082       .  S
C1241      H1253   1.080       .  S
C1242      H1254   1.080       .  S
C1243      H1255   1.080       .  S
C1244      H1256   1.080       .  S
C1259      C1260   1.541       .  S
C1259      C1265   1.542       .  S
C1259      C1263   1.541       .  S
C1259      C1492   1.471       .  S
C1260      H1267   1.086       .  S
C1260      C1261   1.364       .  D
C1261      C1262   1.543       .  S
C1261      C1349   1.493       .  S
C1262      C1266   1.545       .  S
C1262      C1264   1.543       .  S
C1262      H1268   1.112       .  S
C1263      H1269   1.086       .  S
C1263      C1264   1.364       .  D
C1264      C1464   1.491       .  S
C1265      H1270   1.086       .  S
C1265      C1266   1.365       .  D
C1266      C1303   1.494       .  S
C1271      C1272   1.540       .  S
C1271      C1277   1.541       .  S
C1271      C1275   1.541       .  S
C1271      C1497   1.471       .  S
C1272      H1279   1.086       .  S
C1272      C1273   1.363       .  D
C1273      C1274   1.549       .  S
C1273      C1384   1.495       .  S
C1274      C1278   1.549       .  S
C1274      C1276   1.547       .  S
C1274      H1280   1.111       .  S
C1275      H1281   1.086       .  S
C1275      C1276   1.364       .  D
C1276      C1352   1.496       .  S
C1277      H1282   1.086       .  S
C1277      C1278   1.364       .  D
C1278      C1304   1.498       .  S
N1283      C1287   1.350       .  A
N1283      H1315   1.041       .  S
N1284      C1291   1.351       .  A
N1284      C1292   1.352   1_554  A
N1285      C1289   1.350       .  A
N1285      H1316   1.041       .  S
N1286      C1293   1.352       .  A
N1286      C1294   1.351   1_554  A
C1287      C1295   1.382       .  A
C1287      C1303   1.403       .  A
C1288      C1304   1.405       .  A
C1288      C1296   1.382       .  A
C1289      C1297   1.382       .  A
C1289      C1306   1.404       .  A
C1290      C1305   1.403       .  A
C1290      C1298   1.382       .  A
C1291      C1303   1.404       .  A
C1291      C1299   1.376       .  A
C1292      C1306   1.405       .  A
C1292      C1300   1.376       .  A
C1293      C1301   1.376       .  A
C1293      C1304   1.405       .  A
C1294      C1302   1.377       .  A
C1294      C1305   1.406       .  A
C1295      H1307   1.082       .  S
C1296      H1308   1.082       .  S
C1297      H1309   1.082       .  S
C1298      H1310   1.082       .  S
C1299      C1300   1.373   1_554  A
C1299      H1311   1.080       .  S
C1300      H1312   1.080       .  S
C1301      C1302   1.373   1_554  A
C1301      H1313   1.080       .  S
C1302      H1314   1.080       .  S
C1317      C1318   1.542       .  S
C1317      C1323   1.542       .  S
C1317      C1321   1.541       .  S
C1317      C1508   1.472       .  S
C1318      H1325   1.086       .  S
C1318      C1319   1.365       .  D
C1319      C1320   1.545       .  S
C1319      C1417   1.494       .  S
C1320      C1324   1.544       .  S
C1320      C1322   1.544       .  S
C1320      H1326   1.112       .  S
C1321      H1327   1.086       .  S
C1321      C1322   1.364       .  D
C1322      C1351   1.494       .  S
C1323      H1328   1.086       .  S
C1323      C1324   1.365       .  D
C1324      C1383   1.492       .  S
N1329      C1333   1.351       .  A
N1329      H1361   1.039       .  S
N1330      C1337   1.351       .  A
N1331      C1335   1.351       .  A
N1331      H1362   1.042       .  S
N1332      C1339   1.351       .  A
C1333      C1341   1.382       .  A
C1333      C1349   1.407       .  A
C1334      C1350   1.408       .  A
C1334      C1342   1.382       .  A
C1335      C1343   1.382       .  A
C1335      C1352   1.404       .  A
C1336      C1351   1.407       .  A
C1336      C1344   1.382       .  A
C1337      C1349   1.406       .  A
C1337      C1345   1.378       .  A
C1338      C1352   1.405       .  A
C1338      C1346   1.377       .  A
C1339      C1347   1.378       .  A
C1339      C1350   1.407       .  A
C1340      C1348   1.378       .  A
C1340      C1351   1.407       .  A
C1341      H1353   1.082       .  S
C1342      H1354   1.082       .  S
C1343      H1355   1.082       .  S
C1344      H1356   1.082       .  S
C1345      H1357   1.080       .  S
C1346      H1358   1.080       .  S
C1347      H1359   1.080       .  S
C1348      H1360   1.080       .  S
C1350      C1436   1.496       .  S
N1363      C1368   1.352       .  A
N1363      H1395   1.029       .  S
N1364      C1371   1.347       .  A
N1364      C1372   1.348   1_554  A
N1365      C1370   1.351       .  A
N1365      H1396   1.031       .  S
N1366      C1373   1.347       .  A
N1366      C1374   1.347   1_554  A
C1367      C1375   1.380       .  A
C1367      C1383   1.410       .  A
C1368      C1384   1.414       .  A
C1368      C1376   1.378       .  A
C1369      C1377   1.379       .  A
C1369      C1386   1.411       .  A
C1370      C1385   1.410       .  A
C1370      C1378   1.379       .  A
C1371      C1383   1.408       .  A
C1371      C1379   1.382       .  A
C1372      C1386   1.408       .  A
C1372      C1380   1.381       .  A
C1373      C1381   1.381       .  A
C1373      C1384   1.406       .  A
C1374      C1382   1.382       .  A
C1374      C1385   1.407       .  A
C1375      H1387   1.081       .  S
C1376      H1388   1.080       .  S
C1377      H1389   1.080       .  S
C1378      H1390   1.081       .  S
C1379      C1380   1.381   1_554  A
C1379      H1391   1.082       .  S
C1380      H1392   1.082       .  S
C1381      C1382   1.381   1_554  A
C1381      H1393   1.082       .  S
C1382      H1394   1.082       .  S
N1397      C1402   1.350       .  A
N1397      H1429   1.040       .  S
N1398      C1405   1.351       .  A
N1398      C1406   1.351   1_554  A
N1399      C1404   1.351       .  A
N1399      H1430   1.042       .  S
N1400      C1407   1.351       .  A
N1400      C1408   1.352   1_554  A
C1401      C1409   1.382       .  A
C1401      C1417   1.403       .  A
C1402      C1418   1.404       .  A
C1402      C1410   1.382       .  A
C1403      C1411   1.382       .  A
C1403      C1420   1.404       .  A
C1404      C1419   1.403       .  A
C1404      C1412   1.382       .  A
C1405      C1417   1.405       .  A
C1405      C1413   1.376       .  A
C1406      C1420   1.405       .  A
C1406      C1414   1.377       .  A
C1407      C1415   1.377       .  A
C1407      C1418   1.406       .  A
C1408      C1416   1.376       .  A
C1408      C1419   1.405       .  A
C1409      H1421   1.082       .  S
C1410      H1422   1.082       .  S
C1411      H1423   1.082       .  S
C1412      H1424   1.082       .  S
C1413      C1414   1.373   1_554  A
C1413      H1425   1.080       .  S
C1414      H1426   1.080       .  S
C1415      C1416   1.373   1_554  A
C1415      H1427   1.080       .  S
C1416      H1428   1.080       .  S
C1418      C1438   1.494       .  S
C1431      C1432   1.541       .  S
C1431      C1437   1.541       .  S
C1431      C1435   1.543       .  S
C1431      C1504   1.472       .  S
C1432      H1439   1.086       .  S
C1432      C1433   1.364       .  D
C1433      C1434   1.544       .  S
C1433      C1463   1.491       .  S
C1434      C1438   1.545       .  S
C1434      C1436   1.544       .  S
C1434      H1440   1.112       .  S
C1435      H1441   1.086       .  S
C1435      C1436   1.365       .  D
C1437      H1442   1.086       .  S
C1437      C1438   1.364       .  D
N1443      C1447   1.350       .  A
N1443      H1475   1.030       .  S
N1444      C1451   1.347       .  A
N1444      C1452   1.348   1_554  A
N1445      C1449   1.351       .  A
N1445      H1476   1.029       .  S
N1446      C1453   1.346       .  A
N1446      C1454   1.347   1_554  A
C1447      C1455   1.380       .  A
C1447      C1463   1.410       .  A
C1448      C1464   1.410       .  A
C1448      C1456   1.380       .  A
C1449      C1457   1.378       .  A
C1449      C1466   1.412       .  A
C1450      C1465   1.413       .  A
C1450      C1458   1.378       .  A
C1451      C1463   1.408       .  A
C1451      C1459   1.382       .  A
C1452      C1466   1.407       .  A
C1452      C1460   1.381       .  A
C1453      C1461   1.382       .  A
C1453      C1464   1.407       .  A
C1454      C1462   1.380       .  A
C1454      C1465   1.406       .  A
C1455      H1467   1.081       .  S
C1456      H1468   1.081       .  S
C1457      H1469   1.079       .  S
C1458      H1470   1.079       .  S
C1459      C1460   1.381   1_554  A
C1459      H1471   1.082       .  S
C1460      H1472   1.082       .  S
C1461      C1462   1.380   1_554  A
C1461      H1473   1.082       .  S
C1462      H1474   1.082       .  S
C1477      C1478   1.207       .  T
C1478      C1479   1.414       .  S
C1479      C1480   1.207       .  T
C1481      C1482   1.207       .  T
C1482      C1483   1.414       .  S
C1483      C1484   1.207       .  T
C1485      C1486   1.207       .  T
C1486      C1487   1.414       .  S
C1487      C1488   1.207       .  T
C1489      C1490   1.208       .  T
C1490      C1491   1.415       .  S
C1491      C1492   1.208       .  T
C1493      C1494   1.208       .  T
C1494      C1495   1.415       .  S
C1495      C1496   1.208       .  T
C1497      C1498   1.208       .  T
C1498      C1499   1.415       .  S
C1499      C1500   1.207       .  T
C1501      C1502   1.208       .  T
C1502      C1503   1.416       .  S
C1503      C1504   1.208       .  T
C1505      C1506   1.208       .  T
C1506      C1507   1.416       .  S
C1507      C1508   1.208       .  T
