geometry optimzed in LAMMPS
_audit_creation_date              2020-12-01 
_audit_creation_method            'lammps2cif' 
_symmetry_space_group_name_H-M    'P1' 
_symmetry_Int_Tables_number       1 
_symmetry_cell_setting            triclinic 
loop_ 
_symmetry_equiv_pos_as_xyz 
  x,y,z 
_cell_length_a                    35.33437863 
_cell_length_b                    35.34232894134922 
_cell_length_c                    30.304420180971245 
_cell_angle_alpha                 90.03284625883312 
_cell_angle_beta                  89.98973227880539 
_cell_angle_gamma                 119.95506393080996 
loop_ 
_atom_site_label 
_atom_site_type_symbol 
_atom_site_fract_x 
_atom_site_fract_y 
_atom_site_fract_z 
_atom_site_charge 
C1          C  0.48384407  0.71034135  0.09214453     0.78500
N2          N  0.48226115  0.70730005  0.13683751    -0.79800
C3          C  0.48586494  0.74091068  0.16174866     0.81000
N4          N  0.49131021  0.77779185  0.14181733    -0.79700
C5          C  0.49380164  0.78145759  0.09718444     0.81100
N6          N  0.48966291  0.74745745  0.07259351    -0.81500
C7          C  0.48014576  0.70031297  0.27562463     0.78500
N8          N  0.48166541  0.70250627  0.23083322    -0.79800
C9          C  0.48308319  0.73731631  0.20998345     0.81000
N10         N  0.48212281  0.76926706  0.23400724    -0.79700
C11         C  0.47976551  0.76681636  0.27866038     0.81100
N12         N  0.47923976  0.73247181  0.29921862    -0.81500
C13         C  0.22391631  0.78589550  0.27592089     0.78500
N14         N  0.19185167  0.75282670  0.29952991    -0.79800
C15         C  0.15778997  0.71869730  0.27893790     0.81000
N16         N  0.15550525  0.71841462  0.23425864    -0.79700
C17         C  0.18726658  0.75140576  0.21023182     0.81100
N18         N  0.22183041  0.78503100  0.23111570    -0.81500
C19         C  0.21264592  0.78060222  0.09237810     0.78500
N20         N  0.17510086  0.74976967  0.07299506    -0.79800
C21         C  0.14147363  0.71957066  0.09770082     0.81000
N22         N  0.14594325  0.71994465  0.14223087    -0.79700
C23         C  0.18319385  0.75094756  0.16201531     0.81100
N24         N  0.21642715  0.78127286  0.13701099    -0.81500
C25         C  0.14326463  0.43856726  0.09201195     0.78500
N26         N  0.14227784  0.44087593  0.13668402    -0.79800
C27         C  0.17272029  0.43798154  0.16149528     0.81000
N28         N  0.20419367  0.43259219  0.14148091    -0.79700
C29         C  0.20489389  0.42931851  0.09688528     0.81100
N30         N  0.17454230  0.43269509  0.07237455    -0.81500
C31         C  0.13817966  0.44347709  0.27576394     0.78500
N32         N  0.13856994  0.44191731  0.23092353    -0.79800
C33         C  0.17225014  0.44125084  0.20971765     0.81000
N34         N  0.20573641  0.44313649  0.23339604    -0.79700
C35         C  0.20592001  0.44554314  0.27802605     0.81100
N36         N  0.17179812  0.44519564  0.29898234    -0.81500
C37         C  0.75399161  0.27023138  0.27224120     0.78500
N38         N  0.76016059  0.26245740  0.22969442    -0.79800
C39         C  0.73190344  0.22364832  0.21021044     0.81000
N40         N  0.69793124  0.19231492  0.23385125    -0.79700
C41         C  0.69188946  0.19978669  0.27663407     0.81100
N42         N  0.71988253  0.23883844  0.29522108    -0.81500
C43         C  0.77506684  0.24483252  0.09625960     0.78500
N44         N  0.77046969  0.24895918  0.14015136    -0.79800
C45         C  0.73725728  0.21668334  0.16324439     0.81000
N46         N  0.70772454  0.17973103  0.14199249    -0.79700
C47         C  0.71166626  0.17470140  0.09792408     0.81100
N48         N  0.74549004  0.20753997  0.07520089    -0.81500
C49         C  0.67998707  0.53918875  0.09635809     0.78500
N50         N  0.67600531  0.53029267  0.14024234    -0.79800
C51         C  0.70805176  0.52836779  0.16289775     0.81000
N52         N  0.74449568  0.53493586  0.14124762    -0.79700
C53         C  0.74939755  0.54408747  0.09726843     0.81100
N54         N  0.71686243  0.54606239  0.07493751    -0.81500
C55         C  0.65557632  0.49221126  0.27232139     0.78500
N56         N  0.66333637  0.50671605  0.22999401    -0.79800
C57         C  0.70134735  0.51567390  0.20974373     0.81000
N58         N  0.73192076  0.51074736  0.23237564    -0.79700
C59         C  0.72440962  0.49647827  0.27490332     0.81100
N60         N  0.68617026  0.48716569  0.29429320    -0.81500
C61         C  0.43329194  0.17094008  0.27168817     0.78500
N62         N  0.43816168  0.20647661  0.29368635    -0.79800
C63         C  0.42877280  0.23538115  0.27439868     0.81000
N64         N  0.41457277  0.22875444  0.23189866    -0.79700
C65         C  0.40977608  0.19340611  0.20916548     0.81100
N66         N  0.41882119  0.16429801  0.22929746    -0.81500
C67         C  0.38665962  0.14930157  0.09566094     0.78500
N68         N  0.39554069  0.15407255  0.13950398    -0.79800
C69         C  0.39695737  0.18763891  0.16239317     0.81000
N70         N  0.38973076  0.21726408  0.14103693    -0.79700
C71         C  0.38049272  0.21305805  0.09704585     0.81100
N72         N  0.37918592  0.17898096  0.07450130    -0.81500
O73         O  0.43567228  0.52977721  0.39208274    -0.81800
O74         O  0.44279033  0.37245398  0.42491834    -0.81900
O75         O  0.49025466  0.48617710  0.37482127    -0.81900
O76         O  0.36497801  0.43308693  0.37174080    -0.81800
O77         O  0.51247415  0.45212638  0.42022735    -0.81900
O78         O  0.35380000  0.47173834  0.41993023    -0.81900
O79         O  0.40601159  0.38505944  0.37382118    -0.81800
O80         O  0.50723074  0.56736710  0.40212814    -0.81900
C81         C  0.47345708  0.56329842  0.38318961     1.07800
C82         C  0.42756039  0.36713946  0.38584388     1.07700
C83         C  0.51304179  0.46826504  0.38230801     1.07900
C84         C  0.34576192  0.45355042  0.38272409     1.07700
O85         O  0.38023805  0.45916032  0.50355430    -0.81800
O86         O  0.49225151  0.47358328  0.50807728    -0.81900
O87         O  0.46722389  0.54257163  0.48118383    -0.81900
O88         O  0.37032346  0.35146833  0.45996783    -0.81800
O89         O  0.41851137  0.39266281  0.50973795    -0.81900
O90         O  0.40441916  0.54021316  0.46936854    -0.81900
O91         O  0.33329766  0.40357255  0.46236520    -0.81800
O92         O  0.52938420  0.52143265  0.45781210    -0.81900
Co93       Co  0.41054748  0.49284682  0.45036442     1.51500
Co94       Co  0.46450305  0.42454015  0.46562641     1.51700
Co95       Co  0.47496255  0.51046704  0.42594400     1.51600
Co96       Co  0.37207493  0.39679320  0.41742882     1.51500
O97         O  0.42856819  0.44866661  0.43959784    -1.43800
C98         C  0.34225614  0.42671876  0.49746124     1.07800
C99         C  0.52775634  0.50596694  0.49579940     1.07900
C100        C  0.44163420  0.55855220  0.48721884     1.07800
C101        C  0.38756094  0.35590707  0.49794716     1.07800
O102        O  0.99625435  0.54454634  0.50423851    -0.81800
O103        O  0.89943544  0.43256644  0.50885129    -0.81900
O104        O  0.89823777  0.55377380  0.46050060    -0.81900
O105        O  0.99284282  0.45713836  0.48225659    -0.81800
O106        O  0.89187077  0.50598354  0.51032107    -0.81900
O107        O  0.05333942  0.52002259  0.47103743    -0.81900
O108        O  0.90985754  0.39499097  0.45881845    -0.81800
O109        O  0.98755466  0.59130510  0.46282413    -0.81900
C110        C  0.00171199  0.58250120  0.49801836     1.07800
C111        C  0.89583158  0.39683279  0.49664469     1.07700
C112        C  0.88550216  0.53656140  0.49848967     1.07900
C113        C  0.03432309  0.48264856  0.48856591     1.07700
O114        O  0.01241274  0.48847608  0.39354050    -0.81800
O115        O  0.84687598  0.48108833  0.42558519    -0.81900
O116        O  0.98570712  0.55941036  0.37245328    -0.81900
O117        O  0.91348943  0.43352438  0.37585099    -0.81800
O118        O  0.85721191  0.41161702  0.42127735    -0.81900
O119        O  0.03553966  0.57058245  0.42071015    -0.81900
O120        O  0.97825268  0.41692267  0.40329754    -0.81800
O121        O  0.89634650  0.51780968  0.37456441    -0.81900
Co122      Co  0.99999618  0.51391301  0.45140627     1.51500
Co123      Co  0.87769533  0.45982960  0.46642235     1.51700
Co124      Co  0.94204675  0.55211637  0.41803541     1.51600
Co125      Co  0.95326267  0.44920560  0.42684285     1.51500
O126        O  0.93773306  0.49568016  0.44021031    -1.43800
C127        C  0.00827558  0.45068133  0.38467544     1.07800
C128        C  0.85683838  0.49632170  0.38650520     1.07900
C129        C  0.02535326  0.57884454  0.38360964     1.07800
C130        C  0.87273218  0.41110216  0.38330793     1.07800
O131        O  0.46413725  0.92704707  0.50413600    -0.81800
O132        O  0.45034254  0.02513262  0.50858993    -0.81900
O133        O  0.57266818  0.02545640  0.46128958    -0.81900
O134        O  0.38125298  0.93128403  0.48174758    -0.81800
O135        O  0.53134018  0.03271862  0.51064966    -0.81900
O136        O  0.38296061  0.87059943  0.46947922    -0.81900
O137        O  0.40245142  0.01449773  0.45837760    -0.81800
O138        O  0.52026201  0.93621299  0.46345482    -0.81900
C139        C  0.49675202  0.92169511  0.49824491     1.07800
C140        C  0.41819554  0.02861713  0.49620944     1.07700
C141        C  0.56820380  0.03863045  0.49906939     1.07900
C142        C  0.36483062  0.88965249  0.48749036     1.07700
O143        O  0.39413893  0.91262000  0.39232447    -0.81800
O144        O  0.55172547  0.07695762  0.42579399    -0.81900
O145        O  0.49150016  0.93829953  0.37274841    -0.81900
O146        O  0.43747876  0.01074976  0.37536650    -0.81800
O147        O  0.47177919  0.06691837  0.42082976    -0.81900
O148        O  0.45204397  0.88826878  0.42040040    -0.81900
O149        O  0.35632980  0.94635530  0.40268667    -0.81800
O150        O  0.53959365  0.02750858  0.37489938    -0.81900
Co151      Co  0.43079810  0.92403605  0.45070971     1.51500
Co152      Co  0.49941401  0.04653760  0.46628283     1.51700
Co153      Co  0.52741748  0.98179024  0.41856821     1.51600
Co154      Co  0.41333290  0.97103741  0.42650499     1.51500
O155        O  0.47526632  0.98637656  0.44024903    -1.43800
C156        C  0.36048619  0.91676861  0.38355613     1.07800
C157        C  0.55800714  0.06693561  0.38711123     1.07900
C158        C  0.47109317  0.89859552  0.38360507     1.07800
C159        C  0.45543340  0.05144433  0.38293205     1.07800
C160        C  0.36240006  0.24191986  0.02887506    -0.15100
C161        C  0.37580133  0.24745133  0.07328937     0.07100
C162        C  0.38745643  0.28747877  0.09403978    -0.15100
C163        C  0.38849906  0.32195345  0.07025377    -0.15100
C164        C  0.37720734  0.31709049  0.02532677     0.07100
C165        C  0.36276855  0.27623017  0.50525926    -0.15100
H166        H  0.35295746  0.21151913  0.01187036     0.11100
H167        H  0.39779185  0.29298474  0.12820473     0.11100
H168        H  0.39987664  0.35306694  0.08658151     0.11100
H169        H  0.35439407  0.27160525  0.47053833     0.11100
C170        C  0.38377378  0.07549343  0.00275251    -0.15100
C171        C  0.40366704  0.05401852  0.02295624     0.07100
C172        C  0.41451402  0.06148296  0.06784380    -0.15100
C173        C  0.40715407  0.09099887  0.09169906    -0.15100
C174        C  0.38941461  0.11437988  0.07105988     0.07100
C175        C  0.37700431  0.10565387  0.02649535    -0.15100
H176        H  0.37549382  0.07066244  0.96801566     0.11100
H177        H  0.42994191  0.04544799  0.08422554     0.11100
H178        H  0.41705957  0.09670083  0.12598730     0.11100
H179        H  0.36312971  0.12292601  0.00966169     0.11100
C180        C  0.41545755  0.29834654  0.28503386    -0.15100
C181        C  0.43243318  0.27241795  0.30066185     0.07100
C182        C  0.45093177  0.28049835  0.34314938    -0.15100
C183        C  0.45076125  0.31237223  0.37011938    -0.15100
C184        C  0.43198546  0.33690601  0.35534724     0.07100
C185        C  0.41513788  0.33022701  0.31218055    -0.15100
H186        H  0.40115729  0.29309383  0.25243253     0.11100
H187        H  0.46472813  0.26146838  0.35614831     0.11100
H188        H  0.46419641  0.31684365  0.40307011     0.11100
H189        H  0.40066310  0.34884537  0.29974550     0.11100
C190        C  0.47797450  0.12663152  0.35748074    -0.15100
C191        C  0.45423538  0.08148370  0.34957671     0.07100
C192        C  0.42690070  0.06605695  0.31223364    -0.15100
C193        C  0.42155376  0.09525077  0.28499285    -0.15100
C194        C  0.44321605  0.14010238  0.29501785     0.07100
C195        C  0.47240221  0.15545972  0.33073166    -0.15100
H196        H  0.49981872  0.13973812  0.38548369     0.11100
H197        H  0.40822391  0.03140335  0.30525441     0.11100
H198        H  0.39888653  0.08255137  0.25760181     0.11100
H199        H  0.49014733  0.18990349  0.33888517     0.11100
C200        C  0.59981520  0.45134315  0.32970915    -0.15100
C201        C  0.61462554  0.48189630  0.29523957     0.07100
C202        C  0.59194029  0.50419144  0.28575090    -0.15100
C203        C  0.55692871  0.49816608  0.31254124    -0.15100
C204        C  0.54413099  0.46956251  0.34886164     0.07100
C205        C  0.56487970  0.44505771  0.35599168    -0.15100
H206        H  0.61613292  0.43307272  0.33724607     0.11100
H207        H  0.60268060  0.52785383  0.25923187     0.11100
H208        H  0.54141451  0.51741913  0.30620756     0.11100
H209        H  0.55530323  0.42219143  0.38316632     0.11100
C210        C  0.74643296  0.47052621  0.34185902    -0.15100
C211        C  0.75769615  0.49238225  0.30098640     0.07100
C212        C  0.80132497  0.51229699  0.28689768    -0.15100
C213        C  0.83330394  0.51220194  0.31404220    -0.15100
C214        C  0.82231341  0.49206734  0.35577623     0.07100
C215        C  0.77834111  0.47030576  0.36889514    -0.15100
H216        H  0.71299700  0.45433984  0.35352352     0.11100
H217        H  0.81106351  0.52929670  0.25561660     0.11100
H218        H  0.86689303  0.52909246  0.30283764     0.11100
H219        H  0.76871093  0.45416504  0.40062735     0.11100
C220        C  0.60077808  0.51727565  0.09188561    -0.15100
C221        C  0.64228002  0.53666244  0.07186777     0.07100
C222        C  0.64629421  0.55064312  0.02780974    -0.15100
C223        C  0.60931568  0.54338368  0.00377027    -0.15100
C224        C  0.56756008  0.52139091  0.02313026     0.07100
C225        C  0.56388667  0.50942953  0.06772536    -0.15100
H226        H  0.59631243  0.50622731  0.12579550     0.11100
H227        H  0.67776845  0.56599449  0.01151764     0.11100
H228        H  0.61309683  0.55281016  0.46934198     0.11100
H229        H  0.53219237  0.49256090  0.08357320     0.11100
C230        C  0.81473651  0.53372610  0.09366634    -0.15100
C231        C  0.78814138  0.54795867  0.07348559     0.07100
C232        C  0.79769549  0.56350903  0.02983905    -0.15100
C233        C  0.83176726  0.56305938  0.00642468    -0.15100
C234        C  0.85661182  0.54642279  0.02590245     0.07100
C235        C  0.84827720  0.53268905  0.07010593    -0.15100
H236        H  0.80850182  0.52154229  0.12719824     0.11100
H237        H  0.77808581  0.57492774  0.01333461     0.11100
H238        H  0.83694322  0.57336676  0.47223208     0.11100
H239        H  0.86664263  0.51949678  0.08602050     0.11100
C240        C  0.63650533  0.10846419  0.09470994    -0.15100
C241        C  0.67705493  0.13560724  0.07431478     0.07100
C242        C  0.68284410  0.12657237  0.03036861    -0.15100
C243        C  0.64832588  0.09265710  0.00684337    -0.15100
C244        C  0.60702637  0.06739188  0.02650684     0.07100
C245        C  0.60187735  0.07509490  0.07101033    -0.15100
H246        H  0.63074269  0.11425526  0.12848344     0.11100
H247        H  0.71365314  0.14658169  0.01366650     0.11100
H248        H  0.65322520  0.08802455  0.47240749     0.11100
H249        H  0.57046615  0.05636233  0.08707085     0.11100
C250        C  0.83201604  0.32399215  0.09179619    -0.15100
C251        C  0.80979699  0.28258272  0.07159710     0.07100
C252        C  0.81973758  0.27858573  0.02752328    -0.15100
C253        C  0.85002998  0.31544963  0.00381994    -0.15100
C254        C  0.87038821  0.35705430  0.02354448     0.07100
C255        C  0.86166799  0.36075924  0.06798833    -0.15100
H256        H  0.82532762  0.32845859  0.12568180     0.11100
H257        H  0.80340326  0.24720020  0.01106193     0.11100
H258        H  0.85586229  0.31170566  0.96943362     0.11100
H259        H  0.87679078  0.39237812  0.08402789     0.11100
C260        C  0.59684803  0.09125992  0.31431112    -0.15100
C261        C  0.58998409  0.10132448  0.35746690     0.07100
C262        C  0.61586913  0.14416191  0.37305490    -0.15100
C263        C  0.64842975  0.17601001  0.34651670    -0.15100
C264        C  0.65585866  0.16593571  0.30357956     0.07100
C265        C  0.62940488  0.12327028  0.28758999    -0.15100
H266        H  0.57747340  0.05846582  0.30137126     0.11100
H267        H  0.61161572  0.15295891  0.40617052     0.11100
H268        H  0.66807977  0.20853752  0.35998786     0.11100
H269        H  0.63429609  0.11439711  0.25475338     0.11100
C270        C  0.82944701  0.33321535  0.28610004    -0.15100
C271        C  0.78437732  0.31150296  0.29476354     0.07100
C272        C  0.76863841  0.32678898  0.32889502    -0.15100
C273        C  0.79746568  0.36110812  0.35583075    -0.15100
C274        C  0.84277617  0.38068245  0.34953991     0.07100
C275        C  0.85852095  0.36753156  0.31344416    -0.15100
H276        H  0.84234767  0.32197286  0.25997734     0.11100
H277        H  0.73396936  0.31105697  0.33582718     0.11100
H278        H  0.78427245  0.37104727  0.38283645     0.11100
H279        H  0.89329848  0.38212329  0.30776576     0.11100
C280        C  0.28253457  0.46506513  0.37295757    -0.15100
C281        C  0.31206515  0.45388685  0.35445090     0.07100
C282        C  0.30744944  0.44116628  0.30998715    -0.15100
C283        C  0.27335310  0.43910588  0.28466632    -0.15100
C284        C  0.24303859  0.44907084  0.30371812     0.07100
C285        C  0.24828465  0.46243528  0.34797314    -0.15100
H286        H  0.28518669  0.47482015  0.40722405     0.11100
H287        H  0.32991042  0.43250131  0.29496979     0.11100
H288        H  0.27021248  0.42887111  0.25053396     0.11100
H289        H  0.22580412  0.47078303  0.36349112     0.11100
C290        C  0.08035294  0.41188668  0.33319255    -0.15100
C291        C  0.10169696  0.44291974  0.29986438     0.07100
C292        C  0.09062935  0.47544585  0.29283529    -0.15100
C293        C  0.05972423  0.47783967  0.31999798    -0.15100
C294        C  0.03846590  0.44684403  0.35355332     0.07100
C295        C  0.04852586  0.41338700  0.35931392    -0.15100
H296        H  0.08876271  0.38677626  0.33935128     0.11100
H297        H  0.10723420  0.50002795  0.26765547     0.11100
H298        H  0.05273646  0.50409873  0.31508477     0.11100
H299        H  0.03307020  0.38942078  0.38527401     0.11100
C300        C  0.28124343  0.44147871  0.09276516    -0.15100
C301        C  0.23906957  0.42360898  0.07475628     0.07100
C302        C  0.23027053  0.40212772  0.03390205    -0.15100
C303        C  0.26330697  0.40013359  0.01057662    -0.15100
C304        C  0.30622374  0.42051028  0.02705178     0.07100
C305        C  0.31470449  0.44044498  0.06884472    -0.15100
H306        H  0.28888583  0.45820652  0.12425537     0.11100
H307        H  0.19796964  0.38769456  0.01945450     0.11100
H308        H  0.25571416  0.38495095  0.47828524     0.11100
H309        H  0.34749094  0.45661198  0.08226049     0.11100
C310        C  0.10177665  0.47939315  0.49976846    -0.15100
C311        C  0.06015651  0.46880589  0.01490732     0.07100
C312        C  0.04456895  0.44587360  0.05466618    -0.15100
C313        C  0.07139142  0.43547531  0.07992147    -0.15100
C314        C  0.11334397  0.44654605  0.06480096     0.07100
C315        C  0.12787333  0.46782317  0.02408609    -0.15100
H316        H  0.11414021  0.49662363  0.46884428     0.11100
H317        H  0.01241167  0.43730825  0.06673852     0.11100
H318        H  0.05948172  0.41893712  0.11121774     0.11100
H319        H  0.16009375  0.47699231  0.51179864     0.11100
C320        C  0.07750287  0.64326314  0.09331798    -0.15100
C321        C  0.10127201  0.68565725  0.07580336     0.07100
C322        C  0.08795846  0.69476498  0.03547009    -0.15100
C323        C  0.05302255  0.66172593  0.01199249    -0.15100
C324        C  0.03121225  0.61855940  0.02783734     0.07100
C325        C  0.04311524  0.60987537  0.06929036    -0.15100
H326        H  0.08703732  0.63537250  0.12440735     0.11100
H327        H  0.10538275  0.72726640  0.02145579     0.11100
H328        H  0.04495846  0.66954118  0.48004609     0.11100
H329        H  0.02703210  0.57694451  0.08228923     0.11100
C330        C  0.29427133  0.82191938  0.49931938    -0.15100
C331        C  0.32524531  0.86377929  0.01410723     0.07100
C332        C  0.31800120  0.87946232  0.05390688    -0.15100
C333        C  0.28109548  0.85260725  0.07955957    -0.15100
C334        C  0.25033942  0.81046538  0.06483723     0.07100
C335        C  0.25693720  0.79577782  0.02410747    -0.15100
H336        H  0.29900279  0.80940036  0.46840806     0.11100
H337        H  0.34147609  0.91174786  0.06573584     0.11100
H338        H  0.27659513  0.86466017  0.11084940     0.11100
H339        H  0.23390702  0.76342500  0.51204014     0.11100
C340        C  0.08446601  0.65052557  0.28541000    -0.15100
C341        C  0.12378952  0.68215461  0.30504126     0.09800
C342        C  0.13057967  0.67855653  0.35012299    -0.15100
C343        C  0.09884485  0.64432707  0.37508056    -0.15100
C344        C  0.05930657  0.61315743  0.35573354     0.07100
C345        C  0.05231621  0.61647149  0.31066275    -0.15100
H346        H  0.07828243  0.65238113  0.25070841     0.11100
H347        H  0.16051361  0.70217639  0.36626322     0.11100
H348        H  0.10495278  0.64280944  0.40988467     0.11100
H349        H  0.02207494  0.59281295  0.29502184     0.11100
C350        C  0.30344286  0.83443348  0.29186759    -0.15100
C351        C  0.25976882  0.82274569  0.29950035     0.07100
C352        C  0.24995276  0.84416124  0.33267068    -0.15100
C353        C  0.28320695  0.87642729  0.35834900    -0.15100
C354        C  0.32676771  0.88686500  0.35225269     0.07100
C355        C  0.33672160  0.86583027  0.31859983    -0.15100
H356        H  0.31150926  0.81789048  0.26664884     0.11100
H357        H  0.21638342  0.83539910  0.33911837     0.11100
H358        H  0.27459926  0.89178757  0.38437176     0.11100
H359        H  0.37006419  0.87321606  0.31343593     0.11100
C360        C  0.51032051  0.67414822  0.33420104    -0.15100
C361        C  0.48081947  0.66433763  0.29930780     0.07100
C362        C  0.45022716  0.62054736  0.29004407    -0.15100
C363        C  0.44795247  0.58711135  0.31685668    -0.15100
C364        C  0.47731406  0.59713323  0.35212051     0.07100
C365        C  0.50905028  0.64083794  0.35991397    -0.15100
H366        H  0.53403950  0.70776706  0.34192331     0.11100
H367        H  0.42694077  0.61245093  0.26345639     0.11100
H368        H  0.42307511  0.55360256  0.31040868     0.11100
H369        H  0.53168538  0.64943086  0.38721004     0.11100
C370        C  0.46189270  0.79190559  0.34850161    -0.15100
C371        C  0.47695858  0.80065160  0.30477775     0.07100
C372        C  0.48893187  0.84169137  0.28646432    -0.15100
C373        C  0.48663513  0.87362072  0.31178039    -0.15100
C374        C  0.47169013  0.86476144  0.35555491     0.07100
C375        C  0.45902981  0.82347873  0.37349496    -0.15100
H376        H  0.45210337  0.76052106  0.36346957     0.11100
H377        H  0.50068519  0.84935388  0.25283083     0.11100
H378        H  0.49667272  0.90521862  0.29720589     0.11100
H379        H  0.44766230  0.81578115  0.40725770     0.11100
C380        C  0.48825198  0.64241346  0.07900762    -0.15100
C381        C  0.47570293  0.67246106  0.06480839     0.07100
C382        C  0.45343585  0.66525025  0.02462740    -0.15100
C383        C  0.44265354  0.62808038  0.99976380    -0.15100
C384        C  0.45488364  0.59791201  0.01392506     0.07100
C385        C  0.47855085  0.60565816  0.05326393    -0.15100
H386        H  0.50556994  0.64742959  0.10988222     0.11100
H387        H  0.44316875  0.68771518  0.01303236     0.11100
H388        H  0.42474007  0.62289763  0.96922708     0.11100
H389        H  0.48830437  0.58273394  0.06462750     0.11100
C390        C  0.51962848  0.83294009  0.03347455    -0.15100
C391        C  0.49961714  0.82134913  0.07508035     0.07100
C392        C  0.48326598  0.84673005  0.09384403    -0.15100
C393        C  0.48428308  0.88123635  0.06998197    -0.15100
C394        C  0.50279564  0.89163055  0.02754009     0.07100
C395        C  0.52166328  0.86796379  0.01022110    -0.15100
H396        H  0.53286808  0.81423586  0.01839707     0.11100
H397        H  0.46770216  0.83850401  0.12593459     0.11100
H398        H  0.46929182  0.89876826  0.08401098     0.11100
H399        H  0.53569991  0.87474099  0.47740631     0.11100
C400        C  0.48388259  0.71035328  0.59216669     0.78500
N401        N  0.48229815  0.70731210  0.63685937    -0.79800
C402        C  0.48589943  0.74092195  0.66177028     0.81000
N403        N  0.49134312  0.77780322  0.64183873    -0.79700
C404        C  0.49383591  0.78146958  0.59720521     0.81100
N405        N  0.48969987  0.74746925  0.57261579    -0.81500
C406        C  0.48016731  0.70030910  0.77564131     0.78500
N407        N  0.48168775  0.70250703  0.73085032    -0.79800
C408        C  0.48311769  0.73732475  0.71000522     0.81000
N409        N  0.48216964  0.76927922  0.73403372    -0.79700
C410        C  0.47981242  0.76682444  0.77868694     0.81100
N411        N  0.47927346  0.73247157  0.79924037    -0.81500
C412        C  0.22392120  0.78589431  0.77592190     0.78500
N413        N  0.19184176  0.75283985  0.79953085    -0.79800
C414        C  0.15777067  0.71872013  0.77893971     0.81000
N415        N  0.15549123  0.71843248  0.73425990    -0.79700
C416        C  0.18726804  0.75140922  0.71023186     0.81100
N417        N  0.22184136  0.78502504  0.73111592    -0.81500
C418        C  0.21265117  0.78059961  0.59237523     0.78500
N419        N  0.17510329  0.74977222  0.57299370    -0.79800
C420        C  0.14147499  0.71957672  0.59769970     0.81000
N421        N  0.14594481  0.71995010  0.64222980    -0.79700
C422        C  0.18319863  0.75094822  0.66201388     0.81100
N423        N  0.21643453  0.78126930  0.63700834    -0.81500
C424        C  0.14325094  0.43857000  0.59203286     0.78500
N425        N  0.14227118  0.44087706  0.63670520    -0.79800
C426        C  0.17272351  0.43799055  0.66150783     0.81000
N427        N  0.20419809  0.43260942  0.64148553    -0.79700
C428        C  0.20489121  0.42933662  0.59688972     0.81100
N429        N  0.17453105  0.43270684  0.57238733    -0.81500
C430        C  0.13819431  0.44347723  0.77577866     0.78500
N431        N  0.13858025  0.44191700  0.73093935    -0.79800
C432        C  0.17226195  0.44125989  0.70972917     0.81000
N433        N  0.20575524  0.44315467  0.73340237    -0.79700
C434        C  0.20594275  0.44556183  0.77803261     0.81100
N435        N  0.17181907  0.44520598  0.79899382    -0.81500
C436        C  0.75400042  0.27021152  0.77224373     0.78500
N437        N  0.76017466  0.26243404  0.72970029    -0.79800
C438        C  0.73191174  0.22362955  0.71021267     0.81000
N439        N  0.69792759  0.19230371  0.73384624    -0.79700
C440        C  0.69187904  0.19977916  0.77662540     0.81100
N441        N  0.71987833  0.23882681  0.79521673    -0.81500
C442        C  0.77506312  0.24483466  0.59626083     0.78500
N443        N  0.77046964  0.24895286  0.64015432    -0.79800
C444        C  0.73726705  0.21666734  0.66324727     0.81000
N445        N  0.70773944  0.17971369  0.64199335    -0.79700
C446        C  0.71167797  0.17469304  0.59792219     0.81100
N447        N  0.74549298  0.20754149  0.57519949    -0.81500
C448        C  0.67997701  0.53920980  0.59635756     0.78500
N449        N  0.67599661  0.53031228  0.64024189    -0.79800
C450        C  0.70804553  0.52838927  0.66289579     0.81000
N451        N  0.74448980  0.53496125  0.64124354    -0.79700
C452        C  0.74938993  0.54411369  0.59726430     0.81100
N453        N  0.71685258  0.54608608  0.57493563    -0.81500
C454        C  0.65555312  0.49218112  0.77230533     0.78500
N455        N  0.66331830  0.50670101  0.72998352    -0.79800
C456        C  0.70133982  0.51568468  0.70974008     0.81000
N457        N  0.73191969  0.51076905  0.73237489    -0.79700
C458        C  0.72440408  0.49648649  0.77489911     0.81100
N459        N  0.68615327  0.48714832  0.79427987    -0.81500
C460        C  0.43328980  0.17093335  0.77167223     0.78500
N461        N  0.43816795  0.20647568  0.79366517    -0.79800
C462        C  0.42878122  0.23538115  0.77437704     0.81000
N463        N  0.41457253  0.22874889  0.73187986    -0.79700
C464        C  0.40976638  0.19339466  0.70915025     0.81100
N465        N  0.41881095  0.16428582  0.72928365    -0.81500
C466        C  0.38663749  0.14928474  0.59564744     0.78500
N467        N  0.39552681  0.15406038  0.63948870    -0.79800
C468        C  0.39693633  0.18762156  0.66238007     0.81000
N469        N  0.38969537  0.21723865  0.64102661    -0.79700
C470        C  0.38044951  0.21302939  0.59703670     0.81100
N471        N  0.37914825  0.17895535  0.57448992    -0.81500
O472        O  0.43568092  0.52976554  0.89208461    -0.81800
O473        O  0.44278710  0.37243587  0.92491982    -0.81900
O474        O  0.49025301  0.48614734  0.87482421    -0.81900
O475        O  0.36498853  0.43308287  0.87174124    -0.81800
O476        O  0.51247799  0.45210263  0.92023096    -0.81900
O477        O  0.35380875  0.47172871  0.91993440    -0.81900
O478        O  0.40601867  0.38505270  0.87382093    -0.81800
O479        O  0.50724330  0.56734540  0.90211510    -0.81900
C480        C  0.47346784  0.56328095  0.88318454     1.07800
C481        C  0.42756221  0.36712701  0.88584300     1.07700
C482        C  0.51303594  0.46823052  0.88230856     1.07900
C483        C  0.34577407  0.45354750  0.88272568     1.07700
O484        O  0.38024623  0.45914959  0.00355650    -0.81800
O485        O  0.49226255  0.47356959  0.00807814    -0.81900
O486        O  0.46723406  0.54257633  0.98116945    -0.81900
O487        O  0.37032775  0.35146289  0.95996890    -0.81800
O488        O  0.41851216  0.39266267  0.00973860    -0.81900
O489        O  0.40441664  0.54019548  0.96936372    -0.81900
O490        O  0.33330432  0.40356491  0.96236556    -0.81800
O491        O  0.52939341  0.52141753  0.95781126    -0.81900
Co492      Co  0.41055499  0.49283556  0.95036696     1.51500
Co493      Co  0.46450640  0.42452566  0.96562874     1.51700
Co494      Co  0.47497097  0.51045283  0.92594068     1.51600
Co495      Co  0.37208195  0.39678673  0.91742874     1.51500
O496        O  0.42857544  0.44865705  0.93960108    -1.43800
C497        C  0.34226394  0.42670878  0.99746345     1.07800
C498        C  0.52776718  0.50595308  0.99579929     1.07900
C499        C  0.44163528  0.55854775  0.98720461     1.07800
C500        C  0.38756278  0.35590657  0.99795014     1.07800
O501        O  0.99626809  0.54453690  0.00423240    -0.81800
O502        O  0.89944323  0.43254852  0.00884371    -0.81900
O503        O  0.89823820  0.55375508  0.96050127    -0.81900
O504        O  0.99285703  0.45713284  0.98224120    -0.81800
O505        O  0.89187618  0.50596283  0.01031662    -0.81900
O506        O  0.05335338  0.52001754  0.97101808    -0.81900
O507        O  0.90986993  0.39498017  0.95880657    -0.81800
O508        O  0.98755433  0.59129130  0.96282525    -0.81900
C509        C  0.00171607  0.58248878  0.99801754     1.07800
C510        C  0.89584560  0.39681809  0.99663472     1.07700
C511        C  0.88550704  0.53654131  0.99849014     1.07900
C512        C  0.03433866  0.48264197  0.98854342     1.07700
O513        O  0.01241810  0.48846799  0.89352790    -0.81800
O514        O  0.84687880  0.48107254  0.92557849    -0.81900
O515        O  0.98570521  0.55940268  0.87245023    -0.81900
O516        O  0.91350048  0.43351812  0.87584100    -0.81800
O517        O  0.85722271  0.41160419  0.92126749    -0.81900
O518        O  0.03554432  0.57057892  0.92069996    -0.81900
O519        O  0.97825830  0.41691380  0.90328793    -0.81800
O520        O  0.89634618  0.51780053  0.87455806    -0.81900
Co521      Co  0.00000643  0.51390624  0.95139516     1.51500
Co522      Co  0.87770226  0.45981332  0.96641458     1.51700
Co523      Co  0.94204683  0.55210382  0.91803333     1.51600
Co524      Co  0.95327211  0.44919785  0.92683253     1.51500
O525        O  0.93774011  0.49566949  0.94020442    -1.43800
C526        C  0.00828024  0.45067221  0.88466561     1.07800
C527        C  0.85683835  0.49631300  0.88650007     1.07900
C528        C  0.02535131  0.57884589  0.88360493     1.07800
C529        C  0.87274419  0.41109165  0.88329830     1.07800
O530        O  0.46412954  0.92705149  0.00413264    -0.81800
O531        O  0.45035071  0.02514482  0.00859633    -0.81900
O532        O  0.57267288  0.02545775  0.96129062    -0.81900
O533        O  0.38126444  0.93129099  0.98176857    -0.81800
O534        O  0.53134030  0.03271568  0.01064701    -0.81900
O535        O  0.38295662  0.87060438  0.96947179    -0.81900
O536        O  0.40245342  0.01450191  0.95838785    -0.81800
O537        O  0.52025901  0.93621679  0.96345955    -0.81900
C538        C  0.49674318  0.92169770  0.99824523     1.07800
C539        C  0.41820150  0.02862635  0.99621738     1.07700
C540        C  0.56820481  0.03862766  0.99907117     1.07900
C541        C  0.36483573  0.88965758  0.98750109     1.07700
O542        O  0.39414911  0.91263142  0.89231761    -0.81800
O543        O  0.55172681  0.07695559  0.92578958    -0.81900
O544        O  0.49150399  0.93829882  0.87275329    -0.81900
O545        O  0.43746578  0.01074496  0.87537441    -0.81800
O546        O  0.47178065  0.06691855  0.92083022    -0.81900
O547        O  0.45204311  0.88826771  0.92040195    -0.81900
O548        O  0.35632250  0.94634343  0.90270671    -0.81800
O549        O  0.53959717  0.02750498  0.87489762    -0.81900
Co550      Co  0.43079787  0.92404036  0.95070379     1.51500
Co551      Co  0.49941767  0.04654018  0.96628234     1.51700
Co552      Co  0.52742005  0.98179109  0.91857053     1.51600
Co553      Co  0.41333107  0.97103738  0.92651840     1.51500
O554        O  0.47526906  0.98638069  0.94024833    -1.43800
C555        C  0.36048752  0.91676758  0.88356232     1.07800
C556        C  0.55800402  0.06693256  0.88710542     1.07900
C557        C  0.47110467  0.89859575  0.88361305     1.07800
C558        C  0.45542579  0.05144090  0.88293596     1.07800
C559        C  0.36235867  0.24190129  0.52886828    -0.15100
C560        C  0.37576080  0.24742669  0.57328229     0.07100
C561        C  0.38743090  0.28745784  0.59403315    -0.15100
C562        C  0.38849084  0.32194168  0.57024810    -0.15100
C563        C  0.37719900  0.31708517  0.52532130     0.07100
C564        C  0.36279387  0.27623918  0.00526510    -0.15100
H565        H  0.35290485  0.21149835  0.51186288     0.11100
H566        H  0.39776763  0.29296034  0.62819769     0.11100
H567        H  0.39988034  0.35305636  0.58657730     0.11100
H568        H  0.35442151  0.27161103  0.97054366     0.11100
C569        C  0.38371697  0.07543963  0.50275889    -0.15100
C570        C  0.40366201  0.05400880  0.52295009     0.07100
C571        C  0.41456210  0.06151945  0.56782311    -0.15100
C572        C  0.40720235  0.09103622  0.59167472    -0.15100
C573        C  0.38940545  0.11437018  0.57104754     0.07100
C574        C  0.37694503  0.10560053  0.52649884    -0.15100
H575        H  0.37539490  0.07057265  0.46803288     0.11100
H576        H  0.43003196  0.04552110  0.58419546     0.11100
H577        H  0.41715072  0.09677488  0.62594980     0.11100
H578        H  0.36302592  0.12283661  0.50967575     0.11100
C579        C  0.41546101  0.29834337  0.78502190    -0.15100
C580        C  0.43244597  0.27242011  0.80064130     0.07100
C581        C  0.45095141  0.28050248  0.84312613    -0.15100
C582        C  0.45077458  0.31236926  0.87010338    -0.15100
C583        C  0.43198882  0.33689687  0.85534054     0.07100
C584        C  0.41513690  0.33021810  0.81217515    -0.15100
H585        H  0.40115529  0.29308939  0.75242307     0.11100
H586        H  0.46475589  0.26147742  0.85611855     0.11100
H587        H  0.46421400  0.31684080  0.90305219     0.11100
H588        H  0.40065461  0.34883181  0.79974622     0.11100
C589        C  0.47793956  0.12662560  0.85750123    -0.15100
C590        C  0.45422654  0.08148006  0.84958026     0.07100
C591        C  0.42692069  0.06605530  0.81221599    -0.15100
C592        C  0.42157642  0.09524804  0.78496924    -0.15100
C593        C  0.44321243  0.14009633  0.79500923     0.07100
C594        C  0.47237086  0.15545171  0.83074629    -0.15100
H595        H  0.49976151  0.13973255  0.88552076     0.11100
H596        H  0.40826545  0.03140359  0.80522216     0.11100
H597        H  0.39893174  0.08254915  0.75755992     0.11100
H598        H  0.49009717  0.18989241  0.83891376     0.11100
C599        C  0.59979291  0.45129608  0.82969032    -0.15100
C600        C  0.61459480  0.48184696  0.79521830     0.07100
C601        C  0.59189889  0.50413062  0.78572783    -0.15100
C602        C  0.55689111  0.49810405  0.81252352    -0.15100
C603        C  0.54410876  0.46951200  0.84885222     0.07100
C604        C  0.56486074  0.44500987  0.85597943    -0.15100
H605        H  0.61611831  0.43303307  0.83722730     0.11100
H606        H  0.60263106  0.52778939  0.75920595     0.11100
H607        H  0.54137150  0.51735210  0.80618992     0.11100
H608        H  0.55529315  0.42215001  0.88315916     0.11100
C609        C  0.74643958  0.47058756  0.84188871    -0.15100
C610        C  0.75769280  0.49239528  0.80098907     0.07100
C611        C  0.80131205  0.51225812  0.78687660    -0.15100
C612        C  0.83329094  0.51215709  0.81401953    -0.15100
C613        C  0.82231044  0.49206802  0.85577650     0.07100
C614        C  0.77834656  0.47036144  0.86892250    -0.15100
H615        H  0.71301232  0.45444212  0.85357624     0.11100
H616        H  0.81104419  0.52921840  0.75557424     0.11100
H617        H  0.86687291  0.52900429  0.80279309     0.11100
H618        H  0.76872260  0.45425914  0.90067396     0.11100
C619        C  0.60077021  0.51731216  0.59189016    -0.15100
C620        C  0.64226886  0.53668038  0.57186630     0.07100
C621        C  0.64627902  0.55063748  0.52779988    -0.15100
C622        C  0.60930068  0.54337564  0.50376016    -0.15100
C623        C  0.56754859  0.52140344  0.52312809     0.07100
C624        C  0.56387780  0.50946252  0.56772911    -0.15100
H625        H  0.59630784  0.50628171  0.62580615     0.11100
H626        H  0.67774992  0.56597225  0.51150166     0.11100
H627        H  0.61311506  0.55283637  0.96935746     0.11100
H628        H  0.53218519  0.49260897  0.58358170     0.11100
C629        C  0.81473881  0.53376814  0.59366506    -0.15100
C630        C  0.78813243  0.54798367  0.57347819     0.07100
C631        C  0.79767346  0.56351296  0.52982351    -0.15100
C632        C  0.83174485  0.56306106  0.50640947    -0.15100
C633        C  0.85660238  0.54644310  0.52589583     0.07100
C634        C  0.84827850  0.53272823  0.57010524    -0.15100
H635        H  0.80851454  0.52160017  0.62720271     0.11100
H636        H  0.77805412  0.57491678  0.51331290     0.11100
H637        H  0.83697524  0.57338136  0.97225223     0.11100
H638        H  0.86665313  0.51954975  0.58602634     0.11100
C639        C  0.63653337  0.10842771  0.59471773    -0.15100
C640        C  0.67706699  0.13560261  0.57430760     0.07100
C641        C  0.68283614  0.12660795  0.53034035    -0.15100
C642        C  0.64831439  0.09269971  0.50681301    -0.15100
C643        C  0.60703049  0.06739963  0.52649587     0.07100
C644        C  0.60190006  0.07506578  0.57101563    -0.15100
H645        H  0.63078606  0.11418761  0.62850738     0.11100
H646        H  0.71363105  0.14664376  0.51362425     0.11100
H647        H  0.65325323  0.08795098  0.97245138     0.11100
H648        H  0.57049992  0.05630657  0.58708971     0.11100
C649        C  0.83194370  0.32401296  0.59178527    -0.15100
C650        C  0.80977953  0.28259440  0.57160069     0.07100
C651        C  0.81976664  0.27859313  0.52754565    -0.15100
C652        C  0.85005782  0.31546055  0.50384607    -0.15100
C653        C  0.87036755  0.35707162  0.52355572     0.07100
C654        C  0.86159521  0.36078211  0.56798146    -0.15100
H655        H  0.82521425  0.32848233  0.62565537     0.11100
H656        H  0.80347376  0.24719976  0.51109736     0.11100
H657        H  0.85593044  0.31171143  0.46947356     0.11100
H658        H  0.87667770  0.39240565  0.58400941     0.11100
C659        C  0.59683968  0.09125326  0.81430240    -0.15100
C660        C  0.58996881  0.10132207  0.85745390     0.07100
C661        C  0.61583682  0.14416569  0.87303185    -0.15100
C662        C  0.64839455  0.17601416  0.84649198    -0.15100
C663        C  0.65583763  0.16593343  0.80356364     0.07100
C664        C  0.62939399  0.12326393  0.78757960    -0.15100
H665        H  0.57747601  0.05845511  0.80136913     0.11100
H666        H  0.61157476  0.15296696  0.90614244     0.11100
H667        H  0.66803446  0.20854597  0.85995666     0.11100
H668        H  0.63429501  0.11438667  0.75474882     0.11100
C669        C  0.82946186  0.33318271  0.78610948    -0.15100
C670        C  0.78439099  0.31148048  0.79476663     0.07100
C671        C  0.76865280  0.32677881  0.82888706    -0.15100
C672        C  0.79748083  0.36110217  0.85581735    -0.15100
C673        C  0.84279103  0.38066846  0.84953230     0.07100
C674        C  0.85853664  0.36750372  0.81344830    -0.15100
H675        H  0.84236180  0.32193022  0.75999535     0.11100
H676        H  0.73398331  0.31105485  0.83581369     0.11100
H677        H  0.78428791  0.37105194  0.88281469     0.11100
H678        H  0.89331438  0.38208838  0.80777587     0.11100
C679        C  0.28258283  0.46511837  0.87294656    -0.15100
C680        C  0.31208434  0.45389470  0.85445058     0.07100
C681        C  0.30744445  0.44113839  0.80999704    -0.15100
C682        C  0.27335092  0.43908426  0.78467704    -0.15100
C683        C  0.24306394  0.44909233  0.80371990     0.07100
C684        C  0.24833590  0.46249581  0.84796283    -0.15100
H685        H  0.28525451  0.47490343  0.90720466     0.11100
H686        H  0.32988237  0.43243776  0.79498785     0.11100
H687        H  0.27018839  0.42881779  0.75055390     0.11100
H688        H  0.22587682  0.47087816  0.86347179     0.11100
C689        C  0.08037914  0.41189253  0.83321662    -0.15100
C690        C  0.10171101  0.44291513  0.79987754     0.07100
C691        C  0.09062369  0.47542366  0.79282555    -0.15100
C692        C  0.05971357  0.47781494  0.81998032    -0.15100
C693        C  0.03847024  0.44683270  0.85354904     0.07100
C694        C  0.04854636  0.41338924  0.85933013    -0.15100
H695        H  0.08880237  0.38679388  0.83938938     0.11100
H696        H  0.10721734  0.49999521  0.76763381     0.11100
H697        H  0.05271068  0.50406187  0.81505121     0.11100
H698        H  0.03310009  0.38943316  0.88530055     0.11100
C699        C  0.28123176  0.44146772  0.59277355    -0.15100
C700        C  0.23906528  0.42362944  0.57475252     0.07100
C701        C  0.23027058  0.40217524  0.53388315    -0.15100
C702        C  0.26330406  0.40017697  0.51055655    -0.15100
C703        C  0.30621444  0.42052257  0.52704590     0.07100
C704        C  0.31469071  0.44043037  0.56885213    -0.15100
H705        H  0.28887103  0.45817282  0.62427617     0.11100
H706        H  0.19797565  0.38776532  0.51942554     0.11100
H707        H  0.25571270  0.38488550  0.97831605     0.11100
H708        H  0.34747251  0.45657256  0.58227890     0.11100
C709        C  0.10178092  0.47935762  0.99972337    -0.15100
C710        C  0.06014048  0.46881542  0.51493702     0.07100
C711        C  0.04454268  0.44585829  0.55468267    -0.15100
C712        C  0.07136545  0.43545818  0.57993776    -0.15100
C713        C  0.11332821  0.44655220  0.56482848     0.07100
C714        C  0.12786850  0.46785739  0.52412891    -0.15100
H715        H  0.11413470  0.49656815  0.96878790     0.11100
H716        H  0.01237665  0.43727289  0.56674419     0.11100
H717        H  0.05944785  0.41889920  0.61122310     0.11100
H718        H  0.16009034  0.47693833  0.01174602     0.11100
C719        C  0.07750180  0.64327283  0.59331574    -0.15100
C720        C  0.10127364  0.68566627  0.57580098     0.07100
C721        C  0.08796660  0.69477439  0.53546384    -0.15100
C722        C  0.05303153  0.66173650  0.51198484    -0.15100
C723        C  0.03121470  0.61857142  0.52783344     0.07100
C724        C  0.04311466  0.60988651  0.56928731    -0.15100
H725        H  0.08703326  0.63538160  0.62440650     0.11100
H726        H  0.10539503  0.72727500  0.52144804     0.11100
H727        H  0.04494544  0.66953087  0.98005605     0.11100
H728        H  0.02702806  0.57695605  0.58228743     0.11100
C729        C  0.29428857  0.82191383  0.99934290    -0.15100
C730        C  0.32523809  0.86377722  0.51409221     0.07100
C731        C  0.31800702  0.87945432  0.55390193    -0.15100
C732        C  0.28110572  0.85259872  0.57955871    -0.15100
C733        C  0.25034105  0.81046272  0.56483082     0.07100
C734        C  0.25692350  0.79578292  0.52408868    -0.15100
H735        H  0.29902900  0.80938888  0.96843989     0.11100
H736        H  0.34149036  0.91173447  0.56573641     0.11100
H737        H  0.27661616  0.86464645  0.61085672     0.11100
H738        H  0.23392898  0.76341455  0.01206482     0.11100
C739        C  0.08442620  0.65057626  0.78542192    -0.15100
C740        C  0.12376367  0.68218604  0.80504530     0.09800
C741        C  0.13056929  0.67856884  0.85011901    -0.15100
C742        C  0.09884136  0.64433185  0.87507416    -0.15100
C743        C  0.05929414  0.61317406  0.85573311     0.07100
C744        C  0.05228332  0.61651463  0.81067276    -0.15100
H745        H  0.07822962  0.65244953  0.75072743     0.11100
H746        H  0.16051386  0.70217532  0.86625314     0.11100
H747        H  0.10496404  0.64279614  0.90987106     0.11100
H748        H  0.02203280  0.59286854  0.79503734     0.11100
C749        C  0.30344827  0.83441570  0.79188572    -0.15100
C750        C  0.25977561  0.82274049  0.79950401     0.07100
C751        C  0.24995937  0.84416614  0.83266356    -0.15100
C752        C  0.28321179  0.87643290  0.85834259    -0.15100
C753        C  0.32677117  0.88686222  0.85225797     0.07100
C754        C  0.33672516  0.86581426  0.81861844    -0.15100
H755        H  0.31151461  0.81786341  0.76667721     0.11100
H756        H  0.21639089  0.83541250  0.83910137     0.11100
H757        H  0.27460309  0.89180133  0.88435601     0.11100
H758        H  0.37006624  0.87319119  0.81346512     0.11100
C759        C  0.51033450  0.67413414  0.83421216    -0.15100
C760        C  0.48083510  0.66432884  0.79931880     0.07100
C761        C  0.45024196  0.62054020  0.79004854    -0.15100
C762        C  0.44796555  0.58710026  0.81685569    -0.15100
C763        C  0.47732554  0.59711760  0.85211991     0.07100
C764        C  0.50906152  0.64082059  0.85992015    -0.15100
H765        H  0.53405437  0.70775164  0.84193862     0.11100
H766        H  0.42695722  0.61244824  0.76346026     0.11100
H767        H  0.42308819  0.55359214  0.81040346     0.11100
H768        H  0.53169465  0.64940947  0.88721753     0.11100
C769        C  0.46193264  0.79191184  0.84852666    -0.15100
C770        C  0.47701432  0.80066230  0.80480798     0.07100
C771        C  0.48900429  0.84170727  0.78649859    -0.15100
C772        C  0.48669749  0.87363355  0.81180919    -0.15100
C773        C  0.47172605  0.86476700  0.85557459     0.07100
C774        C  0.45906063  0.82348308  0.87351521    -0.15100
H775        H  0.45213308  0.76052390  0.86349199     0.11100
H776        H  0.50077335  0.84937432  0.75287042     0.11100
H777        H  0.49674378  0.90523378  0.79723569     0.11100
H778        H  0.44767667  0.81578148  0.90727261     0.11100
C779        C  0.48825756  0.64240285  0.57903812    -0.15100
C780        C  0.47573787  0.67247082  0.56482989     0.07100
C781        C  0.45349162  0.66527733  0.52463805    -0.15100
C782        C  0.44269757  0.62810544  0.49977370    -0.15100
C783        C  0.45489379  0.59791535  0.51394492     0.07100
C784        C  0.47854465  0.60564410  0.55329333    -0.15100
H785        H  0.50555994  0.64740477  0.60992047     0.11100
H786        H  0.44324780  0.68775759  0.51303427     0.11100
H787        H  0.42480063  0.62293782  0.46922833     0.11100
H788        H  0.48827525  0.58270427  0.56466318     0.11100
C789        C  0.51964195  0.83293847  0.53348044    -0.15100
C790        C  0.49965006  0.82136136  0.57509666     0.07100
C791        C  0.48331538  0.84675540  0.59386446    -0.15100
C792        C  0.48432546  0.88125672  0.56999655    -0.15100
C793        C  0.50281445  0.89163378  0.52754340     0.07100
C794        C  0.52166984  0.86795690  0.51022090    -0.15100
H795        H  0.53287051  0.81422630  0.51839863     0.11100
H796        H  0.46776852  0.83854304  0.62596338     0.11100
H797        H  0.46934628  0.89879806  0.58403062     0.11100
H798        H  0.53570957  0.87476055  0.97741355     0.11100
loop_ 
_geom_bond_atom_site_label_1 
_geom_bond_atom_site_label_2 
_geom_bond_distance 
_geom_bond_site_symmetry_2 
_ccdc_geom_bond_type 
C1            N2   1.358       .  A
C1            N6   1.359       .  A
C1          C381   1.475       .  S
N2            C3   1.358       .  A
C3            N4   1.361       .  A
C3            C9   1.466       .  S
N4            C5   1.357       .  A
C5            N6   1.358       .  A
C5          C391   1.480       .  S
C7            N8   1.359       .  A
C7           N12   1.356       .  A
C7          C361   1.471       .  S
N8            C9   1.362       .  A
C9           N10   1.358       .  A
N10          C11   1.356       .  A
C11          N12   1.357       .  A
C11         C371   1.478       .  S
C13          N14   1.356       .  A
C13          N18   1.359       .  A
C13         C351   1.471       .  S
N14          C15   1.357       .  A
C15          N16   1.356       .  A
C15         C341   1.479       .  S
N16          C17   1.358       .  A
C17          N18   1.362       .  A
C17          C23   1.468       .  S
C19          N20   1.360       .  A
C19          N24   1.358       .  A
C19         C334   1.477       .  S
N20          C21   1.359       .  A
C21          N22   1.358       .  A
C21         C321   1.481       .  S
N22          C23   1.361       .  A
C23          N24   1.359       .  A
C25          N26   1.358       .  A
C25          N30   1.359       .  A
C25         C314   1.475       .  S
N26          C27   1.358       .  A
C27          N28   1.361       .  A
C27          C33   1.467       .  S
N28          C29   1.358       .  A
C29          N30   1.358       .  A
C29         C301   1.480       .  S
C31          N32   1.360       .  A
C31          N36   1.356       .  A
C31         C291   1.473       .  S
N32          C33   1.363       .  A
C33          N34   1.357       .  A
N34          C35   1.355       .  A
C35          N36   1.357       .  A
C35         C284   1.476       .  S
C37          N38   1.358       .  A
C37          N42   1.354       .  A
C37         C271   1.477       .  S
N38          C39   1.363       .  A
C39          N40   1.361       .  A
C39          C45   1.472       .  S
N40          C41   1.361       .  A
C41          N42   1.355       .  A
C41         C264   1.483       .  S
C43          N44   1.357       .  A
C43          N48   1.364       .  A
C43         C251   1.487       .  S
N44          C45   1.353       .  A
C45          N46   1.359       .  A
N46          C47   1.363       .  A
C47          N48   1.366       .  A
C47         C241   1.493       .  S
C49          N50   1.358       .  A
C49          N54   1.365       .  A
C49         C221   1.488       .  S
N50          C51   1.355       .  A
C51          N52   1.358       .  A
C51          C57   1.472       .  S
N52          C53   1.362       .  A
C53          N54   1.366       .  A
C53         C231   1.492       .  S
C55          N56   1.358       .  A
C55          N60   1.355       .  A
C55         C201   1.477       .  S
N56          C57   1.362       .  A
C57          N58   1.362       .  A
N58          C59   1.361       .  A
C59          N60   1.355       .  A
C59         C211   1.483       .  S
C61          N62   1.355       .  A
C61          N66   1.359       .  A
C61         C194   1.481       .  S
N62          C63   1.354       .  A
C63          N64   1.359       .  A
C63         C181   1.481       .  S
N64          C65   1.361       .  A
C65          N66   1.364       .  A
C65          C69   1.471       .  S
C67          N68   1.356       .  A
C67          N72   1.363       .  A
C67         C174   1.486       .  S
N68          C69   1.353       .  A
C69          N70   1.359       .  A
N70          C71   1.363       .  A
C71          N72   1.365       .  A
C71         C161   1.492       .  S
O73          C81   1.296       .  A
O73         Co93   2.111       .  S
O74          C82   1.275       .  A
O74         Co94   2.022       .  S
O75          C83   1.269       .  A
O75         Co95   1.972       .  S
O76          C84   1.259       .  A
O76         Co96   1.987       .  S
O77          C83   1.279       .  A
O77         Co94   2.017       .  S
O78          C84   1.258       .  A
O78         Co93   1.983       .  S
O79          C82   1.263       .  A
O79         Co96   1.963       .  S
O80          C81   1.266       .  A
O80         Co95   1.891       .  S
C81         C364   1.474       .  S
C82         C184   1.478       .  S
C83         C204   1.478       .  S
C84         C281   1.472       .  S
O85          C98   1.270       .  A
O85         Co93   1.973       .  S
O86          C99   1.260       .  A
O86         Co94   1.980       .  S
O87         C100   1.296       .  A
O87         Co95   2.115       .  S
O88         C101   1.275       .  A
O88         Co96   2.033       .  S
O89         C101   1.262       .  A
O89         Co94   1.967       .  S
O90         C100   1.261       .  A
O90         Co93   1.882       .  S
O91          C98   1.281       .  A
O91         Co96   2.029       .  S
O92          C99   1.264       .  A
O92         Co95   2.009       .  S
Co93         O97   1.985       .  S
Co94         O97   2.011       .  S
Co95         O97   2.014       .  S
Co96         O97   2.035       .  S
C98         C703   1.482       .  S
C99         C623   1.481       .  S
C100        C783   1.469       .  S
C101        C563   1.485       .  S
O102        C110   1.270   1_655  A
O102       Co122   1.973       .  S
O103        C111   1.260       .  A
O103       Co123   1.978       .  S
O104        C112   1.275       .  A
O104       Co124   2.036       .  S
O105        C113   1.295   1_655  A
O105       Co125   2.113       .  S
O106        C112   1.261       .  A
O106       Co123   1.966       .  S
O107        C113   1.262       .  A
O107       Co122   1.883   1_455  S
O108        C111   1.263       .  A
O108       Co125   2.007       .  S
O109        C110   1.281   1_655  A
O109       Co124   2.030       .  S
C110        C723   1.483       .  S
C111        C653   1.479       .  S
C112        C633   1.487       .  S
C113        C710   1.468       .  S
O114        C127   1.297       .  A
O114       Co122   2.114   1_455  S
O115        C128   1.276       .  A
O115       Co123   2.025       .  S
O116        C129   1.260   1_655  A
O116       Co124   1.989       .  S
O117        C130   1.270       .  A
O117       Co125   1.973       .  S
O118        C130   1.279       .  A
O118       Co123   2.016       .  S
O119        C129   1.259       .  A
O119       Co122   1.986   1_455  S
O120        C127   1.266   1_655  A
O120       Co125   1.896       .  S
O121        C128   1.264       .  A
O121       Co124   1.964       .  S
Co122       O126   1.989       .  S
Co123       O126   2.013       .  S
Co124       O126   2.037       .  S
Co125       O126   2.016       .  S
C127        C294   1.480       .  S
C128        C214   1.482       .  S
C129        C344   1.474       .  S
C130        C274   1.479       .  S
O131        C139   1.270       .  A
O131       Co151   1.974       .  S
O132        C140   1.259       .  A
O132       Co152   1.978       .  S
O133        C141   1.275       .  A
O133       Co153   2.037   1_545  S
O134        C142   1.296       .  A
O134       Co154   2.115       .  S
O135        C141   1.262       .  A
O135       Co152   1.967       .  S
O136        C142   1.262       .  A
O136       Co151   1.887       .  S
O137        C140   1.263       .  A
O137       Co154   2.007   1_545  S
O138        C139   1.280       .  A
O138       Co153   2.026       .  S
C139        C793   1.480       .  S
C140        C570   1.478       .  S
C141        C643   1.488       .  S
C142        C730   1.472       .  S
O143        C156   1.296       .  A
O143       Co151   2.109       .  S
O144        C157   1.275       .  A
O144       Co152   2.023       .  S
O145        C158   1.260       .  A
O145       Co153   1.988       .  S
O146        C159   1.270       .  A
O146       Co154   1.976   1_545  S
O147        C159   1.279       .  A
O147       Co152   2.018       .  S
O148        C158   1.259       .  A
O148       Co151   1.988       .  S
O149        C156   1.266       .  A
O149       Co154   1.893       .  S
O150        C157   1.263       .  A
O150       Co153   1.963   1_545  S
Co151       O155   1.992       .  S
Co152       O155   2.014   1_545  S
Co153       O155   2.037       .  S
Co154       O155   2.018       .  S
C156        C354   1.476       .  S
C157        C261   1.480       .  S
C158        C374   1.475       .  S
C159        C191   1.482       .  S
C160        C161   1.408       .  A
C160        C564   1.403       .  A
C160        H166   1.083       .  S
C161        C162   1.408       .  A
C162        C163   1.401       .  A
C162        H167   1.083       .  S
C163        C164   1.405       .  A
C163        H168   1.083       .  S
C164        C500   1.485   1_554  S
C164        C564   1.407       .  A
C165        C559   1.403       .  A
C165        C563   1.407       .  A
C165        H169   1.083       .  S
C170        C171   1.407       .  A
C170        C175   1.402       .  A
C170        H176   1.083   1_554  S
C171        C539   1.478   1_554  S
C171        C172   1.402       .  A
C172        C173   1.396       .  A
C172        H177   1.083       .  S
C173        C174   1.409       .  A
C173        H178   1.083       .  S
C174        C175   1.406       .  A
C175        H179   1.083       .  S
C180        C181   1.405       .  A
C180        C185   1.399       .  A
C180        H186   1.083       .  S
C181        C182   1.407       .  A
C182        C183   1.394       .  A
C182        H187   1.083       .  S
C183        C184   1.403       .  A
C183        H188   1.083       .  S
C184        C185   1.407       .  A
C185        H189   1.083       .  S
C190        C191   1.404       .  A
C190        C195   1.391       .  A
C190        H196   1.083       .  S
C191        C192   1.409       .  A
C192        C193   1.406       .  A
C192        H197   1.083       .  S
C193        C194   1.407       .  A
C193        H198   1.083       .  S
C194        C195   1.404       .  A
C195        H199   1.083       .  S
C200        C201   1.403       .  A
C200        C205   1.391       .  A
C200        H206   1.083       .  S
C201        C202   1.406       .  A
C202        C203   1.404       .  A
C202        H207   1.083       .  S
C203        C204   1.408       .  A
C203        H208   1.083       .  S
C204        C205   1.403       .  A
C205        H209   1.083       .  S
C210        C211   1.408       .  A
C210        C215   1.397       .  A
C210        H216   1.083       .  S
C211        C212   1.404       .  A
C212        C213   1.399       .  A
C212        H217   1.083       .  S
C213        C214   1.408       .  A
C213        H218   1.083       .  S
C214        C215   1.404       .  A
C215        H219   1.083       .  S
C220        C221   1.409       .  A
C220        C225   1.397       .  A
C220        H226   1.083       .  S
C221        C222   1.406       .  A
C222        C223   1.403       .  A
C222        H227   1.083       .  S
C223        C224   1.407       .  A
C223        H627   1.083   1_554  S
C224        C498   1.481   1_554  S
C224        C225   1.403       .  A
C225        H229   1.083       .  S
H228        C622   1.083       .  S
C230        C231   1.408       .  A
C230        C235   1.400       .  A
C230        H236   1.083       .  S
C231        C232   1.407       .  A
C232        C233   1.404       .  A
C232        H237   1.083       .  S
C233        C234   1.407       .  A
C233        H637   1.083   1_554  S
C234        C511   1.487   1_554  S
C234        C235   1.405       .  A
C235        H239   1.083       .  S
H238        C632   1.083       .  S
C240        C241   1.408       .  A
C240        C245   1.401       .  A
C240        H246   1.083       .  S
C241        C242   1.408       .  A
C242        C243   1.404       .  A
C242        H247   1.083       .  S
C243        C244   1.407       .  A
C243        H647   1.083   1_554  S
C244        C540   1.488   1_554  S
C244        C245   1.405       .  A
C245        H249   1.083       .  S
H248        C642   1.083       .  S
C250        C251   1.409       .  A
C250        C255   1.396       .  A
C250        H256   1.083       .  S
C251        C252   1.406       .  A
C252        C253   1.403       .  A
C252        H257   1.083       .  S
C253        C254   1.407       .  A
C253        H258   1.083   1_554  S
C254        C510   1.479   1_554  S
C254        C255   1.402       .  A
C255        H259   1.083       .  S
C260        C261   1.408       .  A
C260        C265   1.400       .  A
C260        H266   1.083       .  S
C261        C262   1.403       .  A
C262        C263   1.395       .  A
C262        H267   1.083       .  S
C263        C264   1.408       .  A
C263        H268   1.083       .  S
C264        C265   1.405       .  A
C265        H269   1.083       .  S
C270        C271   1.405       .  A
C270        C275   1.403       .  A
C270        H276   1.083       .  S
C271        C272   1.404       .  A
C272        C273   1.393       .  A
C272        H277   1.083       .  S
C273        C274   1.404       .  A
C273        H278   1.083       .  S
C274        C275   1.407       .  A
C275        H279   1.083       .  S
C280        C281   1.404       .  A
C280        C285   1.391       .  A
C280        H286   1.083       .  S
C281        C282   1.404       .  A
C282        C283   1.399       .  A
C282        H287   1.083       .  S
C283        C284   1.407       .  A
C283        H288   1.083       .  S
C284        C285   1.403       .  A
C285        H289   1.083       .  S
C290        C291   1.402       .  A
C290        C295   1.398       .  A
C290        H296   1.084       .  S
C291        C292   1.403       .  A
C292        C293   1.403       .  A
C292        H297   1.083       .  S
C293        C294   1.406       .  A
C293        H298   1.083       .  S
C294        C295   1.405       .  A
C295        H299   1.083       .  S
C300        C301   1.406       .  A
C300        C305   1.403       .  A
C300        H306   1.083       .  S
C301        C302   1.403       .  A
C302        C303   1.396       .  A
C302        H307   1.083       .  S
C303        C304   1.406       .  A
C303        H707   1.083   1_554  S
C304        C497   1.482   1_554  S
C304        C305   1.407       .  A
C305        H309   1.083       .  S
H308        C702   1.083       .  S
C310        C710   1.402       .  A
C310        C714   1.392       .  A
C310        H316   1.084       .  S
C311        C512   1.468   1_554  S
C311        C312   1.403       .  A
C311        C709   1.402   1_554  A
C312        C313   1.403       .  A
C312        H317   1.083       .  S
C313        C314   1.408       .  A
C313        H318   1.083       .  S
C314        C315   1.402       .  A
C315        C709   1.392   1_554  A
C315        H718   1.083       .  S
H319        C714   1.083       .  S
C320        C321   1.406       .  A
C320        C325   1.402       .  A
C320        H326   1.083       .  S
C321        C322   1.404       .  A
C322        C323   1.398       .  A
C322        H327   1.083       .  S
C323        C324   1.407       .  A
C323        H727   1.083   1_554  S
C324        C509   1.483   1_554  S
C324        C325   1.407       .  A
C325        H329   1.083       .  S
H328        C722   1.083       .  S
C330        C730   1.403       .  A
C330        C734   1.393       .  A
C330        H336   1.084       .  S
C331        C541   1.472   1_554  S
C331        C332   1.403       .  A
C331        C729   1.403   1_554  A
C332        C333   1.404       .  A
C332        H337   1.083       .  S
C333        C334   1.408       .  A
C333        H338   1.083       .  S
C334        C335   1.403       .  A
C335        C729   1.393   1_554  A
C335        H738   1.083       .  S
H339        C734   1.083       .  S
C340        C341   1.408       .  A
C340        C345   1.400       .  A
C340        H346   1.083       .  S
C341        C342   1.404       .  A
C342        C343   1.392       .  A
C342        H347   1.083       .  S
C343        C344   1.404       .  A
C343        H348   1.083       .  S
C344        C345   1.403       .  A
C345        H349   1.083       .  S
C350        C351   1.403       .  A
C350        C355   1.402       .  A
C350        H356   1.083       .  S
C351        C352   1.402       .  A
C352        C353   1.396       .  A
C352        H357   1.084       .  S
C353        C354   1.404       .  A
C353        H358   1.083       .  S
C354        C355   1.406       .  A
C355        H359   1.083       .  S
C360        C361   1.401       .  A
C360        C365   1.394       .  A
C360        H366   1.084       .  S
C361        C362   1.404       .  A
C362        C363   1.403       .  A
C362        H367   1.083       .  S
C363        C364   1.406       .  A
C363        H368   1.083       .  S
C364        C365   1.403       .  A
C365        H369   1.083       .  S
C370        C371   1.404       .  A
C370        C375   1.393       .  A
C370        H376   1.083       .  S
C371        C372   1.407       .  A
C372        C373   1.400       .  A
C372        H377   1.083       .  S
C373        C374   1.404       .  A
C373        H378   1.083       .  S
C374        C375   1.405       .  A
C375        H379   1.083       .  S
C380        C381   1.407       .  A
C380        C385   1.403       .  A
C380        H386   1.083       .  S
C381        C382   1.402       .  A
C382        C383   1.392   1_554  A
C382        H387   1.083       .  S
C383        C384   1.403   1_556  A
C383        H388   1.084       .  S
C384        C499   1.469   1_554  S
C384        C385   1.402       .  A
C385        H389   1.083       .  S
C390        C391   1.403       .  A
C390        C395   1.395       .  A
C390        H396   1.083       .  S
C391        C392   1.407       .  A
C392        C393   1.403       .  A
C392        H397   1.083       .  S
C393        C394   1.406       .  A
C393        H398   1.083       .  S
C394        C538   1.480   1_554  S
C394        C395   1.406       .  A
C395        H798   1.083   1_554  S
H399        C794   1.083       .  S
C400        N401   1.358       .  A
C400        N405   1.359       .  A
C400        C780   1.475       .  S
N401        C402   1.358       .  A
C402        N403   1.361       .  A
C402        C408   1.466       .  S
N403        C404   1.358       .  A
C404        N405   1.358       .  A
C404        C790   1.480       .  S
C406        N407   1.359       .  A
C406        N411   1.356       .  A
C406        C760   1.471       .  S
N407        C408   1.362       .  A
C408        N409   1.358       .  A
N409        C410   1.356       .  A
C410        N411   1.357       .  A
C410        C770   1.478       .  S
C412        N413   1.356       .  A
C412        N417   1.359       .  A
C412        C750   1.471       .  S
N413        C414   1.357       .  A
C414        N415   1.356       .  A
C414        C740   1.479       .  S
N415        C416   1.358       .  A
C416        N417   1.362       .  A
C416        C422   1.468       .  S
C418        N419   1.360       .  A
C418        N423   1.358       .  A
C418        C733   1.477       .  S
N419        C420   1.359       .  A
C420        N421   1.358       .  A
C420        C720   1.481       .  S
N421        C422   1.361       .  A
C422        N423   1.359       .  A
C424        N425   1.358       .  A
C424        N429   1.359       .  A
C424        C713   1.475       .  S
N425        C426   1.358       .  A
C426        N427   1.361       .  A
C426        C432   1.467       .  S
N427        C428   1.358       .  A
C428        N429   1.358       .  A
C428        C700   1.480       .  S
C430        N431   1.360       .  A
C430        N435   1.356       .  A
C430        C690   1.473       .  S
N431        C432   1.363       .  A
C432        N433   1.357       .  A
N433        C434   1.355       .  A
C434        N435   1.357       .  A
C434        C683   1.476       .  S
C436        N437   1.358       .  A
C436        N441   1.354       .  A
C436        C670   1.477       .  S
N437        C438   1.363       .  A
C438        N439   1.361       .  A
C438        C444   1.472       .  S
N439        C440   1.361       .  A
C440        N441   1.355       .  A
C440        C663   1.483       .  S
C442        N443   1.357       .  A
C442        N447   1.364       .  A
C442        C650   1.487       .  S
N443        C444   1.353       .  A
C444        N445   1.359       .  A
N445        C446   1.363       .  A
C446        N447   1.366       .  A
C446        C640   1.493       .  S
C448        N449   1.358       .  A
C448        N453   1.365       .  A
C448        C620   1.488       .  S
N449        C450   1.355       .  A
C450        N451   1.358       .  A
C450        C456   1.472       .  S
N451        C452   1.362       .  A
C452        N453   1.366       .  A
C452        C630   1.492       .  S
C454        N455   1.358       .  A
C454        N459   1.355       .  A
C454        C600   1.477       .  S
N455        C456   1.362       .  A
C456        N457   1.362       .  A
N457        C458   1.361       .  A
C458        N459   1.355       .  A
C458        C610   1.483       .  S
C460        N461   1.355       .  A
C460        N465   1.359       .  A
C460        C593   1.481       .  S
N461        C462   1.354       .  A
C462        N463   1.359       .  A
C462        C580   1.481       .  S
N463        C464   1.361       .  A
C464        N465   1.365       .  A
C464        C468   1.471       .  S
C466        N467   1.356       .  A
C466        N471   1.363       .  A
C466        C573   1.486       .  S
N467        C468   1.353       .  A
C468        N469   1.359       .  A
N469        C470   1.363       .  A
C470        N471   1.365       .  A
C470        C560   1.492       .  S
O472        C480   1.296       .  A
O472       Co492   2.111       .  S
O473        C481   1.275       .  A
O473       Co493   2.022       .  S
O474        C482   1.269       .  A
O474       Co494   1.972       .  S
O475        C483   1.259       .  A
O475       Co495   1.987       .  S
O476        C482   1.279       .  A
O476       Co493   2.017       .  S
O477        C483   1.258       .  A
O477       Co492   1.983       .  S
O478        C481   1.263       .  A
O478       Co495   1.963       .  S
O479        C480   1.266       .  A
O479       Co494   1.891       .  S
C480        C763   1.474       .  S
C481        C583   1.479       .  S
C482        C603   1.478       .  S
C483        C680   1.472       .  S
O484        C497   1.270   1_554  A
O484       Co492   1.973   1_554  S
O485        C498   1.260   1_554  A
O485       Co493   1.980   1_554  S
O486        C499   1.296       .  A
O486       Co494   2.115       .  S
O487        C500   1.275       .  A
O487       Co495   2.033       .  S
O488        C500   1.262   1_554  A
O488       Co493   1.967   1_554  S
O489        C499   1.261       .  A
O489       Co492   1.882       .  S
O490        C497   1.281       .  A
O490       Co495   2.029       .  S
O491        C498   1.264       .  A
O491       Co494   2.009       .  S
Co492       O496   1.985       .  S
Co493       O496   2.011       .  S
Co494       O496   2.013       .  S
Co495       O496   2.035       .  S
O501        C509   1.270   1_654  A
O501       Co521   1.973   1_654  S
O502        C510   1.260   1_554  A
O502       Co522   1.978   1_554  S
O503        C511   1.275       .  A
O503       Co523   2.036       .  S
O504        C512   1.295   1_655  A
O504       Co524   2.113       .  S
O505        C511   1.261   1_554  A
O505       Co522   1.965   1_554  S
O506        C512   1.262       .  A
O506       Co521   1.883       .  S
O507        C510   1.263       .  A
O507       Co524   2.007       .  S
O508        C509   1.281   1_655  A
O508       Co523   2.030       .  S
O513        C526   1.297       .  A
O513       Co521   2.114       .  S
O514        C527   1.276       .  A
O514       Co522   2.025       .  S
O515        C528   1.260   1_655  A
O515       Co523   1.989       .  S
O516        C529   1.270       .  A
O516       Co524   1.973       .  S
O517        C529   1.279       .  A
O517       Co522   2.016       .  S
O518        C528   1.259       .  A
O518       Co521   1.986       .  S
O519        C526   1.266   1_655  A
O519       Co524   1.896       .  S
O520        C527   1.264       .  A
O520       Co523   1.964       .  S
Co521       O525   1.989   1_455  S
Co522       O525   2.013       .  S
Co523       O525   2.037       .  S
Co524       O525   2.016       .  S
C526        C693   1.480       .  S
C527        C613   1.482       .  S
C528        C743   1.474       .  S
C529        C673   1.479       .  S
O530        C538   1.270   1_554  A
O530       Co550   1.974   1_554  S
O531        C539   1.259   1_554  A
O531       Co551   1.978   1_554  S
O532        C540   1.275       .  A
O532       Co552   2.037   1_545  S
O533        C541   1.296       .  A
O533       Co553   2.115       .  S
O534        C540   1.262   1_554  A
O534       Co551   1.967   1_554  S
O535        C541   1.262       .  A
O535       Co550   1.887       .  S
O536        C539   1.263       .  A
O536       Co553   2.007   1_545  S
O537        C538   1.280       .  A
O537       Co552   2.026       .  S
O542        C555   1.296       .  A
O542       Co550   2.109       .  S
O543        C556   1.275       .  A
O543       Co551   2.023       .  S
O544        C557   1.260       .  A
O544       Co552   1.988       .  S
O545        C558   1.270       .  A
O545       Co553   1.976   1_545  S
O546        C558   1.279       .  A
O546       Co551   2.018       .  S
O547        C557   1.259       .  A
O547       Co550   1.988       .  S
O548        C555   1.266       .  A
O548       Co553   1.893       .  S
O549        C556   1.263       .  A
O549       Co552   1.963   1_545  S
Co550       O554   1.992       .  S
Co551       O554   2.014   1_545  S
Co552       O554   2.038       .  S
Co553       O554   2.018       .  S
C555        C753   1.476       .  S
C556        C660   1.480       .  S
C557        C773   1.475       .  S
C558        C590   1.482       .  S
C559        C560   1.408       .  A
C559        H565   1.083       .  S
C560        C561   1.408       .  A
C561        C562   1.401       .  A
C561        H566   1.083       .  S
C562        C563   1.405       .  A
C562        H567   1.083       .  S
C564        H568   1.083   1_554  S
C569        C570   1.407       .  A
C569        C574   1.402       .  A
C569        H575   1.083       .  S
C570        C571   1.402       .  A
C571        C572   1.396       .  A
C571        H576   1.083       .  S
C572        C573   1.409       .  A
C572        H577   1.083       .  S
C573        C574   1.406       .  A
C574        H578   1.083       .  S
C579        C580   1.405       .  A
C579        C584   1.399       .  A
C579        H585   1.083       .  S
C580        C581   1.407       .  A
C581        C582   1.394       .  A
C581        H586   1.083       .  S
C582        C583   1.403       .  A
C582        H587   1.083       .  S
C583        C584   1.407       .  A
C584        H588   1.083       .  S
C589        C590   1.404       .  A
C589        C594   1.391       .  A
C589        H595   1.083       .  S
C590        C591   1.409       .  A
C591        C592   1.406       .  A
C591        H596   1.083       .  S
C592        C593   1.407       .  A
C592        H597   1.083       .  S
C593        C594   1.404       .  A
C594        H598   1.083       .  S
C599        C600   1.403       .  A
C599        C604   1.391       .  A
C599        H605   1.083       .  S
C600        C601   1.406       .  A
C601        C602   1.404       .  A
C601        H606   1.083       .  S
C602        C603   1.408       .  A
C602        H607   1.083       .  S
C603        C604   1.403       .  A
C604        H608   1.083       .  S
C609        C610   1.408       .  A
C609        C614   1.397       .  A
C609        H615   1.083       .  S
C610        C611   1.404       .  A
C611        C612   1.399       .  A
C611        H616   1.083       .  S
C612        C613   1.408       .  A
C612        H617   1.083       .  S
C613        C614   1.404       .  A
C614        H618   1.083       .  S
C619        C620   1.409       .  A
C619        C624   1.397       .  A
C619        H625   1.083       .  S
C620        C621   1.406       .  A
C621        C622   1.403       .  A
C621        H626   1.083       .  S
C622        C623   1.407       .  A
C623        C624   1.403       .  A
C624        H628   1.083       .  S
C629        C630   1.408       .  A
C629        C634   1.400       .  A
C629        H635   1.083       .  S
C630        C631   1.407       .  A
C631        C632   1.404       .  A
C631        H636   1.083       .  S
C632        C633   1.407       .  A
C633        C634   1.405       .  A
C634        H638   1.083       .  S
C639        C640   1.408       .  A
C639        C644   1.401       .  A
C639        H645   1.083       .  S
C640        C641   1.408       .  A
C641        C642   1.404       .  A
C641        H646   1.083       .  S
C642        C643   1.407       .  A
C643        C644   1.405       .  A
C644        H648   1.083       .  S
C649        C650   1.409       .  A
C649        C654   1.396       .  A
C649        H655   1.083       .  S
C650        C651   1.406       .  A
C651        C652   1.403       .  A
C651        H656   1.083       .  S
C652        C653   1.407       .  A
C652        H657   1.083       .  S
C653        C654   1.402       .  A
C654        H658   1.083       .  S
C659        C660   1.408       .  A
C659        C664   1.400       .  A
C659        H665   1.083       .  S
C660        C661   1.403       .  A
C661        C662   1.395       .  A
C661        H666   1.083       .  S
C662        C663   1.408       .  A
C662        H667   1.083       .  S
C663        C664   1.405       .  A
C664        H668   1.083       .  S
C669        C670   1.405       .  A
C669        C674   1.403       .  A
C669        H675   1.083       .  S
C670        C671   1.404       .  A
C671        C672   1.393       .  A
C671        H676   1.083       .  S
C672        C673   1.404       .  A
C672        H677   1.083       .  S
C673        C674   1.407       .  A
C674        H678   1.083       .  S
C679        C680   1.404       .  A
C679        C684   1.391       .  A
C679        H685   1.083       .  S
C680        C681   1.404       .  A
C681        C682   1.399       .  A
C681        H686   1.083       .  S
C682        C683   1.407       .  A
C682        H687   1.083       .  S
C683        C684   1.403       .  A
C684        H688   1.083       .  S
C689        C690   1.402       .  A
C689        C694   1.398       .  A
C689        H695   1.084       .  S
C690        C691   1.403       .  A
C691        C692   1.403       .  A
C691        H696   1.083       .  S
C692        C693   1.406       .  A
C692        H697   1.083       .  S
C693        C694   1.405       .  A
C694        H698   1.083       .  S
C699        C700   1.406       .  A
C699        C704   1.403       .  A
C699        H705   1.083       .  S
C700        C701   1.403       .  A
C701        C702   1.396       .  A
C701        H706   1.083       .  S
C702        C703   1.406       .  A
C703        C704   1.407       .  A
C704        H708   1.083       .  S
C709        H715   1.084       .  S
C710        C711   1.403       .  A
C711        C712   1.403       .  A
C711        H716   1.083       .  S
C712        C713   1.408       .  A
C712        H717   1.083       .  S
C713        C714   1.402       .  A
C719        C720   1.406       .  A
C719        C724   1.402       .  A
C719        H725   1.083       .  S
C720        C721   1.404       .  A
C721        C722   1.398       .  A
C721        H726   1.083       .  S
C722        C723   1.407       .  A
C723        C724   1.407       .  A
C724        H728   1.083       .  S
C729        H735   1.084       .  S
C730        C731   1.403       .  A
C731        C732   1.404       .  A
C731        H736   1.083       .  S
C732        C733   1.408       .  A
C732        H737   1.083       .  S
C733        C734   1.403       .  A
C739        C740   1.408       .  A
C739        C744   1.400       .  A
C739        H745   1.083       .  S
C740        C741   1.404       .  A
C741        C742   1.392       .  A
C741        H746   1.083       .  S
C742        C743   1.404       .  A
C742        H747   1.083       .  S
C743        C744   1.403       .  A
C744        H748   1.083       .  S
C749        C750   1.403       .  A
C749        C754   1.402       .  A
C749        H755   1.083       .  S
C750        C751   1.402       .  A
C751        C752   1.396       .  A
C751        H756   1.084       .  S
C752        C753   1.404       .  A
C752        H757   1.083       .  S
C753        C754   1.406       .  A
C754        H758   1.083       .  S
C759        C760   1.401       .  A
C759        C764   1.394       .  A
C759        H765   1.084       .  S
C760        C761   1.404       .  A
C761        C762   1.403       .  A
C761        H766   1.083       .  S
C762        C763   1.406       .  A
C762        H767   1.083       .  S
C763        C764   1.403       .  A
C764        H768   1.083       .  S
C769        C770   1.404       .  A
C769        C774   1.393       .  A
C769        H775   1.083       .  S
C770        C771   1.407       .  A
C771        C772   1.400       .  A
C771        H776   1.083       .  S
C772        C773   1.404       .  A
C772        H777   1.083       .  S
C773        C774   1.405       .  A
C774        H778   1.083       .  S
C779        C780   1.407       .  A
C779        C784   1.403       .  A
C779        H785   1.083       .  S
C780        C781   1.402       .  A
C781        C782   1.392       .  A
C781        H786   1.083       .  S
C782        C783   1.403       .  A
C782        H787   1.084       .  S
C783        C784   1.402       .  A
C784        H788   1.083       .  S
C789        C790   1.403       .  A
C789        C794   1.395       .  A
C789        H795   1.083       .  S
C790        C791   1.407       .  A
C791        C792   1.403       .  A
C791        H796   1.083       .  S
C792        C793   1.406       .  A
C792        H797   1.083       .  S
C793        C794   1.406       .  A
