geometry optimzed in LAMMPS
_audit_creation_date              2020-12-01 
_audit_creation_method            'lammps2cif' 
_symmetry_space_group_name_H-M    'P1' 
_symmetry_Int_Tables_number       1 
_symmetry_cell_setting            triclinic 
loop_ 
_symmetry_equiv_pos_as_xyz 
  x,y,z 
_cell_length_a                    33.3546132 
_cell_length_b                    33.5323402739817 
_cell_length_c                    33.226945551408896 
_cell_angle_alpha                 89.76813534011043 
_cell_angle_beta                  89.58212267993513 
_cell_angle_gamma                 89.40863429915092 
loop_ 
_atom_site_label 
_atom_site_type_symbol 
_atom_site_fract_x 
_atom_site_fract_y 
_atom_site_fract_z 
_atom_site_charge 
C1          C  0.36991661  0.62294666  0.62453694    -0.01300
N2          N  0.41341365  0.55619074  0.55128536    -0.04900
N3          N  0.38495481  0.56487844  0.57763727    -0.57000
N4          N  0.43794625  0.58403533  0.45879938    -0.04600
N5          N  0.42749854  0.61149914  0.43197307    -0.59100
N6          N  0.41165817  0.55504269  0.45877904    -0.04200
N7          N  0.38355473  0.56218870  0.43151034    -0.57000
N8          N  0.44150444  0.58347917  0.55238473    -0.03800
N9          N  0.43298074  0.60992769  0.58088220    -0.59500
C10         C  0.39811583  0.59730357  0.59779599     0.97300
C11         C  0.39419453  0.59713847  0.41373648     0.97100
N12         N  0.56415085  0.55917374  0.45765147    -0.05100
N13         N  0.59298763  0.57071049  0.43282988    -0.57600
N14         N  0.53907812  0.58885410  0.54683472    -0.03200
N15         N  0.55110624  0.61952169  0.56856851    -0.58800
N16         N  0.56474263  0.55910650  0.55055035    -0.05100
N17         N  0.59251050  0.56840159  0.57716103    -0.57900
N18         N  0.53466973  0.58551908  0.45657835    -0.02800
N19         N  0.54324598  0.61448931  0.43093209    -0.58900
Mn20       Mn  0.48796903  0.58606474  0.50370387     1.18400
C21         C  0.57995428  0.60532693  0.41557729     0.99400
C22         C  0.58396775  0.60643589  0.58902881     1.00000
N23         N  0.41470339  0.46077542  0.45919374    -0.05100
N24         N  0.38556008  0.45152312  0.43423270    -0.61400
N25         N  0.44171140  0.43036244  0.55209024    -0.03900
N26         N  0.43109394  0.40066094  0.57658004    -0.62100
N27         N  0.41389019  0.45861291  0.55339503    -0.04600
N28         N  0.38489754  0.44825389  0.57922031    -0.61700
N29         N  0.44265203  0.43282654  0.45879578    -0.03500
N30         N  0.43230599  0.40408740  0.43390565    -0.62400
Mn31       Mn  0.41295114  0.50770236  0.50586719     1.10700
C32         C  0.39614409  0.41542026  0.41890699     1.00600
C33         C  0.39555692  0.41171221  0.59420931     1.00700
N34         N  0.56641442  0.46271373  0.55193778    -0.04600
N35         N  0.59387882  0.45504655  0.57977934    -0.60000
N36         N  0.54003905  0.43365908  0.45696723    -0.04000
N37         N  0.55032605  0.40547187  0.43075988    -0.56700
N38         N  0.56787529  0.46127086  0.45786049    -0.05300
N39         N  0.59733799  0.45157391  0.43245979    -0.59600
N40         N  0.54184605  0.43238852  0.54884772    -0.04300
N41         N  0.55444104  0.40288555  0.57218850    -0.56800
Mn42       Mn  0.56637101  0.51043552  0.50464686     1.20200
Mn43       Mn  0.49156461  0.43174590  0.50422553     1.10100
Cl44       Cl  0.48981583  0.50891928  0.50482633    -0.84700
C45         C  0.58603678  0.41739373  0.59296004     0.97600
C46         C  0.58661597  0.41634136  0.41544475     0.97400
C47         C  0.61258556  0.39197591  0.62289798    -0.01300
C48         C  0.36733736  0.38913351  0.39350533    -0.01300
C49         C  0.60428390  0.63305243  0.38577298    -0.01300
C50         C  0.36605946  0.62282260  0.38660033    -0.01300
C51         C  0.61323705  0.39038262  0.38530474    -0.01300
C52         C  0.36844008  0.38453264  0.62323296    -0.01300
C53         C  0.60841841  0.63065955  0.62164461    -0.01300
C54         C  0.27531112  0.24518456  0.99328685     0.03500
C55         C  0.27462477  0.25045584  0.03591619     0.03500
C56         C  0.24725660  0.27893925  0.05168760    -0.17000
C57         C  0.21963969  0.29898111  0.02672263     0.03500
C58         C  0.22125096  0.29312657  0.98488332     0.03500
C59         C  0.24856795  0.26625676  0.96897529    -0.17000
H60         H  0.24963215  0.26215640  0.93658892     0.05500
H61         H  0.24682147  0.28538504  0.08357497     0.05500
C62         C  0.20756932  0.99340782  0.28035153     0.03500
C63         C  0.20872322  0.03550110  0.27787247     0.03500
C64         C  0.23568085  0.05356339  0.25046633    -0.17000
C65         C  0.26066805  0.03012399  0.22510849     0.03500
C66         C  0.25740906  0.98814444  0.22683982     0.03500
C67         C  0.23191651  0.97061691  0.25485786    -0.17000
H68         H  0.23088241  0.93831076  0.25671101     0.05500
H69         H  0.23716715  0.08580445  0.24881831     0.05500
C70         C  0.96040845  0.22596106  0.27039197     0.03500
C71         C  0.00277290  0.22460586  0.26948779     0.03500
C72         C  0.02369196  0.25029806  0.24362537    -0.17000
C73         C  0.00352131  0.27828984  0.21962307     0.03500
C74         C  0.96108813  0.27908440  0.22010344     0.03500
C75         C  0.93993078  0.25282299  0.24518537    -0.17000
H76         H  0.90751523  0.25405069  0.24590409     0.05500
H77         H  0.05614787  0.24993547  0.24380861     0.05500
C78         C  0.50818245  0.28302236  0.28861445     0.03500
C79         C  0.46581773  0.28193471  0.29083349     0.03500
C80         C  0.44503995  0.25430301  0.26745887    -0.17000
C81         C  0.46485450  0.22835760  0.24099103     0.03500
C82         C  0.50721328  0.22810765  0.23924394     0.03500
C83         C  0.52817360  0.25570970  0.26284388    -0.17000
H84         H  0.56059972  0.25624984  0.26069726     0.05500
H85         H  0.41258415  0.25364920  0.26911444     0.05500
C86         C  0.24460092  0.29657077  0.52787626     0.03500
C87         C  0.24319774  0.30040194  0.48550967     0.03500
C88         C  0.21695701  0.27660556  0.46313888    -0.17000
C89         C  0.19440979  0.24611317  0.48130168     0.03500
C90         C  0.19562830  0.24215575  0.52382838     0.03500
C91         C  0.21992087  0.26787255  0.54658842    -0.17000
H92         H  0.22125626  0.26402788  0.57901245     0.05500
H93         H  0.21626525  0.28028104  0.43069733     0.05500
C94         C  0.26546362  0.52261120  0.27703872     0.03500
C95         C  0.26541576  0.48054079  0.28111926     0.03500
C96         C  0.23579936  0.45816720  0.26169842    -0.17000
C97         C  0.20748339  0.47599985  0.23559742     0.03500
C98         C  0.20785050  0.51819648  0.23112698     0.03500
C99         C  0.23670275  0.54065212  0.25185120    -0.17000
H100        H  0.23638549  0.57282399  0.24876499     0.05500
H101        H  0.23471727  0.42639776  0.26739713     0.05500
C102        C  0.27177090  0.77982798  0.98361200     0.03500
C103        C  0.27144091  0.78323570  0.02654949     0.03500
C104        C  0.24634058  0.75883426  0.04992820    -0.17000
C105        C  0.22083710  0.73140505  0.03179529     0.03500
C106        C  0.22139467  0.72774622  0.98973319     0.03500
C107        C  0.24800844  0.75034713  0.96639627    -0.17000
H108        H  0.24918924  0.74532741  0.93427554     0.05500
H109        H  0.24605040  0.76184198  0.08238491     0.05500
C110        C  0.76719406  0.28560018  0.03565605     0.03500
C111        C  0.76411607  0.29005486  0.99327514     0.03500
C112        C  0.73482475  0.26819004  0.97299596    -0.17000
C113        C  0.70956772  0.24185404  0.99368247     0.03500
C114        C  0.71279622  0.23765385  0.03577401     0.03500
C115        C  0.74162704  0.25955639  0.05604924    -0.17000
H116        H  0.74360316  0.25722267  0.08849326     0.05500
H117        H  0.73253938  0.27063214  0.94057045     0.05500
C118        C  0.97279607  0.28016115  0.78754853     0.03500
C119        C  0.01472761  0.27932994  0.79253630     0.03500
C120        C  0.03831695  0.25265181  0.76974419    -0.17000
C121        C  0.02102839  0.22712668  0.74112796     0.03500
C122        C  0.97880726  0.22788434  0.73594620     0.03500
C123        C  0.95555352  0.25485214  0.75904607    -0.17000
H124        H  0.92321933  0.25551913  0.75537380     0.05500
H125        H  0.07060289  0.25226032  0.77385466     0.05500
C126        C  0.71560390  0.49690596  0.28322897     0.03500
C127        C  0.72265373  0.53849806  0.28832399     0.03500
C128        C  0.75503417  0.55517188  0.26718089    -0.17000
C129        C  0.77726838  0.53367803  0.23829643     0.03500
C130        C  0.77050237  0.49227282  0.23278164     0.03500
C131        C  0.73877355  0.47512433  0.25498752    -0.17000
H132        H  0.73153229  0.44403974  0.25036530     0.05500
H133        H  0.76229356  0.58629938  0.27166483     0.05500
C134        C  0.28058930  0.48521755  0.74310797     0.03500
C135        C  0.27394960  0.52671640  0.73899599     0.03500
C136        C  0.24559832  0.54550288  0.76362183    -0.17000
C137        C  0.22096939  0.52425119  0.79003468     0.03500
C138        C  0.22621795  0.48215788  0.79341474     0.03500
C139        C  0.25779925  0.46386081  0.77147308    -0.17000
H140        H  0.26299621  0.43198925  0.77431426     0.05500
H141        H  0.24233595  0.57778241  0.76217368     0.05500
C142        C  0.87625244  0.63388243  0.87960661    -0.01300
N143        N  0.06756361  0.55924887  0.95614964    -0.04900
N144        N  0.09662650  0.56841378  0.93020268    -0.57000
N145        N  0.03865465  0.58765754  0.05062572    -0.04600
N146        N  0.04832531  0.61470587  0.07801921    -0.59100
N147        N  0.06603980  0.55917311  0.04999517    -0.04200
N148        N  0.09441795  0.56686670  0.07641776    -0.57000
N149        N  0.04024382  0.58788233  0.95620239    -0.03800
N150        N  0.05071997  0.61628967  0.93035854    -0.59500
C151        C  0.08630720  0.60443281  0.91383390     0.97300
C152        C  0.08387387  0.60191633  0.09403324     0.97100
N153        N  0.91336947  0.56202826  0.05075609    -0.05100
N154        N  0.88631130  0.57099996  0.07894454    -0.57600
N155        N  0.94364401  0.58962454  0.95480463    -0.03200
N156        N  0.93769463  0.61577869  0.92521158    -0.58800
N157        N  0.91244370  0.56606615  0.95827926    -0.05100
N158        N  0.88368420  0.57857783  0.93397516    -0.57900
N159        N  0.94123968  0.58966112  0.04981299    -0.02800
N160        N  0.93255800  0.61765225  0.07680437    -0.58900
Mn161      Mn  0.99081288  0.58954193  0.00276053     1.18400
C162        C  0.89781482  0.60635013  0.09515578     0.99400
C163        C  0.90010117  0.60830134  0.91151836     1.00000
N164        N  0.06295097  0.46314332  0.05051283    -0.05100
N165        N  0.09091126  0.45205614  0.07636754    -0.61400
N166        N  0.03616378  0.43545763  0.95777877    -0.03900
N167        N  0.04591318  0.40621102  0.93263864    -0.62100
N168        N  0.06571351  0.46089330  0.96028674    -0.04600
N169        N  0.09628449  0.44792379  0.93864745    -0.61700
N170        N  0.03383278  0.43696388  0.05059443    -0.03500
N171        N  0.04118084  0.40847816  0.07738789    -0.62400
Mn172      Mn  0.06603534  0.51082000  0.00397056     1.10700
C173        C  0.07661170  0.41852143  0.09432100     1.00600
C174        C  0.08389597  0.41452535  0.92001769     1.00700
N175        N  0.91132084  0.46598032  0.95409299    -0.04600
N176        N  0.88279591  0.45466728  0.92880349    -0.60000
N177        N  0.94003962  0.44059878  0.04921152    -0.04000
N178        N  0.93359200  0.41413471  0.07791626    -0.56700
N179        N  0.90925184  0.46506589  0.04594630    -0.05300
N180        N  0.87988167  0.45334829  0.07013449    -0.59600
N181        N  0.93979113  0.43835462  0.95482759    -0.04300
N182        N  0.93094482  0.40888839  0.92982107    -0.56800
Mn183      Mn  0.91060238  0.51503009  0.00203171     1.20200
Mn184      Mn  0.98725337  0.43759734  0.00287459     1.10100
Cl185      Cl  0.98864545  0.51335136  0.00242495    -0.84700
C186        C  0.89495524  0.41870255  0.91335183     0.97600
C187        C  0.89599543  0.42226014  0.09125345     0.97400
C188        C  0.87322199  0.39574736  0.12158079    -0.01300
C189        C  0.10863934  0.38998194  0.88797676    -0.01300
C190        C  0.11544511  0.63168363  0.88758894    -0.01300
C191        C  0.86838776  0.39016910  0.88610316    -0.01300
C192        C  0.87015508  0.63362548  0.12336605    -0.01300
C193        C  0.71750516  0.49256506  0.72477576     0.03500
C194        C  0.71649447  0.53458918  0.72472595     0.03500
C195        C  0.74250905  0.55551510  0.75028700    -0.17000
C196        C  0.77072385  0.53552246  0.77521757     0.03500
C197        C  0.77124646  0.49303991  0.77527767     0.03500
C198        C  0.74503909  0.47262366  0.74966824    -0.17000
H199        H  0.74565922  0.44029230  0.74961321     0.05500
H200        H  0.74093495  0.58779118  0.75041639     0.05500
C201        C  0.11097702  0.62600112  0.12453653    -0.01300
C202        C  0.10289608  0.38947835  0.11948879    -0.01300
C203        C  0.28788970  0.99705618  0.77629219     0.03500
C204        C  0.28119763  0.03822866  0.78027711     0.03500
C205        C  0.25274906  0.05713747  0.75622997    -0.17000
C206        C  0.23010560  0.03582986  0.72841205     0.03500
C207        C  0.23619819  0.99373505  0.72432885     0.03500
C208        C  0.26669606  0.97551356  0.74746870    -0.17000
H209        H  0.27263393  0.94382970  0.74472706     0.05500
H210        H  0.24778435  0.08897228  0.75957509     0.05500
C211        C  0.50040067  0.72685804  0.27490957     0.03500
C212        C  0.45795293  0.72744568  0.27252528     0.03500
C213        C  0.43973731  0.75445078  0.24557787    -0.17000
C214        C  0.46201777  0.78038421  0.22063221    -0.09700
C215        C  0.50441676  0.77812952  0.22179389     0.03500
C216        C  0.52275696  0.75106576  0.24861878    -0.17000
H217        H  0.55520730  0.74941511  0.24972333     0.05500
H218        H  0.40740198  0.75562767  0.24436577     0.05500
C219        C  0.51756962  0.27702399  0.71854970     0.03500
C220        C  0.47523413  0.27701031  0.71934088     0.03500
C221        C  0.45524144  0.25319787  0.74787839    -0.17000
C222        C  0.47600639  0.22903967  0.77569154     0.03500
C223        C  0.51838570  0.22770588  0.77408788     0.03500
C224        C  0.53857052  0.25147787  0.74511953    -0.17000
H225        H  0.57099275  0.25151550  0.74444884     0.05500
H226        H  0.42281742  0.25455799  0.74930376     0.05500
C227        C  0.61477666  0.13349671  0.89249026    -0.01300
N228        N  0.53944673  0.93643398  0.95923440    -0.04900
N229        N  0.54613280  0.90871943  0.93185926    -0.57000
N230        N  0.56887135  0.96119854  0.05269100    -0.04600
N231        N  0.59696424  0.95014013  0.07881757    -0.59100
N232        N  0.54012218  0.93463513  0.05266771    -0.04200
N233        N  0.54833784  0.90576086  0.07875586    -0.57000
N234        N  0.56790924  0.96324922  0.95821769    -0.03800
N235        N  0.59439274  0.95351121  0.92973452    -0.59500
C236        C  0.58080157  0.91881570  0.91343237     0.97300
C237        C  0.58424148  0.91495067  0.09512472     0.97100
N238        N  0.53694057  0.08442432  0.05545616    -0.05100
N239        N  0.54352422  0.11188451  0.08290804    -0.57600
N240        N  0.56826385  0.06070521  0.96087353    -0.03200
N241        N  0.59699320  0.07045131  0.93509935    -0.58800
N242        N  0.54115204  0.08951893  0.96242429    -0.05100
N243        N  0.55182260  0.11922133  0.93800535    -0.57900
N244        N  0.56662812  0.05833161  0.05397148    -0.02800
N245        N  0.59437222  0.06872192  0.07999919    -0.58900
Mn246      Mn  0.56916466  0.01087080  0.00629958     1.18400
C247        C  0.58008177  0.10259043  0.09773210     0.99400
C248        C  0.58718283  0.10728157  0.92082485     1.00000
N249        N  0.44410912  0.93679290  0.05270232    -0.05100
N250        N  0.43359686  0.90854849  0.07877274    -0.61400
N251        N  0.41656077  0.96492174  0.95964428    -0.03900
N252        N  0.38711000  0.95457350  0.93556358    -0.62100
N253        N  0.44535552  0.93779159  0.95831646    -0.04600
N254        N  0.43651341  0.90962935  0.93188179    -0.61700
N255        N  0.41642591  0.96495446  0.05187788    -0.03500
N256        N  0.38734001  0.95605399  0.07719379    -0.62400
Mn257      Mn  0.49228634  0.93576864  0.00590554     1.10700
C258        C  0.39793751  0.92132238  0.09474334     1.00600
C259        C  0.39963668  0.91996788  0.91797425     1.00700
N260        N  0.44484418  0.08942321  0.96133214    -0.04600
N261        N  0.43581236  0.11933310  0.93676844    -0.60000
N262        N  0.41411241  0.06012172  0.05317691    -0.04000
N263        N  0.38479979  0.06973221  0.07862791    -0.56700
N264        N  0.44332925  0.08589069  0.05604537    -0.05300
N265        N  0.43478058  0.11237755  0.08456817    -0.59600
N266        N  0.41723823  0.06176425  0.95947822    -0.04300
N267        N  0.38946893  0.07258535  0.93317723    -0.56800
Mn268      Mn  0.49153908  0.08792872  0.00873754     1.20200
Mn269      Mn  0.41534732  0.01294434  0.00576949     1.10100
Cl270      Cl  0.49220211  0.01187293  0.00646998    -0.84700
C271        C  0.40081229  0.10912263  0.91928691     0.97600
C272        C  0.39771942  0.10259812  0.09858932     0.97400
C273        C  0.60984614  0.88662151  0.12373140    -0.01300
C274        C  0.37194617  0.89475583  0.89050192    -0.01300
C275        C  0.37417817  0.13686211  0.89187393    -0.01300
C276        C  0.60460844  0.89091070  0.88349905    -0.01300
C277        C  0.36883606  0.89472170  0.11962136    -0.01300
C278        C  0.50501091  0.73307948  0.73105081     0.03500
C279        C  0.46290489  0.72670078  0.73690740     0.03500
C280        C  0.44218996  0.74797448  0.76713724    -0.17000
C281        C  0.46108266  0.77675659  0.79032690     0.03500
C282        C  0.50195204  0.78454152  0.78409062     0.03500
C283        C  0.52286746  0.76367125  0.75378771    -0.17000
H284        H  0.55381001  0.77156576  0.74808872     0.05500
H285        H  0.41025704  0.74341474  0.77138781     0.05500
C286        C  0.36991473  0.12825585  0.12724998    -0.01300
C287        C  0.60329367  0.13050112  0.12640750    -0.01300
C288        C  0.96959350  0.73476561  0.22973374     0.03500
C289        C  0.01178845  0.73276888  0.23037847     0.03500
C290        C  0.03229224  0.75829772  0.25656236    -0.17000
C291        C  0.01180717  0.78549502  0.28187158     0.03500
C292        C  0.96950185  0.78697284  0.28141879     0.03500
C293        C  0.94910434  0.76138734  0.25542112    -0.17000
H294        H  0.91661126  0.76239759  0.25489300     0.05500
H295        H  0.06476998  0.75720327  0.25709665     0.05500
C296        C  0.70434037  0.98942321  0.23510673     0.03500
C297        C  0.70365027  0.03130355  0.23208061     0.03500
C298        C  0.73091977  0.05454620  0.25359569    -0.17000
C299        C  0.75819078  0.03753478  0.28064599     0.03500
C300        C  0.75908859  0.99515661  0.28380012     0.03500
C301        C  0.73169624  0.97207036  0.26197420    -0.17000
H302        H  0.73252608  0.93986732  0.26522868     0.05500
H303        H  0.73118725  0.08641003  0.24812940     0.05500
C304        C  0.71926811  0.28664988  0.52566072     0.03500
C305        C  0.72124410  0.28535282  0.48305730     0.03500
C306        C  0.74806587  0.25841503  0.46465861    -0.17000
C307        C  0.77283828  0.23316392  0.48757269     0.03500
C308        C  0.77150671  0.23494584  0.52992115     0.03500
C309        C  0.74515839  0.26213483  0.54841908    -0.17000
H310        H  0.74419017  0.26363169  0.58102705     0.05500
H311        H  0.74892885  0.25619330  0.43209365     0.05500
C312        C  0.26414055  0.72678007  0.48618963     0.03500
C313        C  0.26765529  0.72823798  0.52833208     0.03500
C314        C  0.24475878  0.75576008  0.55019330    -0.17000
C315        C  0.21783152  0.78184327  0.53076284     0.03500
C316        C  0.21390954  0.78062314  0.48829644     0.03500
C317        C  0.23708709  0.75248209  0.46654547    -0.17000
H318        H  0.23481619  0.75125751  0.43402250     0.05500
H319        H  0.24795382  0.75695188  0.58265723     0.05500
C320        C  0.86826833  0.12596170  0.38727078    -0.01300
N321        N  0.94374970  0.05507605  0.58278890    -0.04900
N322        N  0.93602952  0.08161400  0.61143527    -0.57000
N323        N  0.91516178  0.96231066  0.55417396    -0.04600
N324        N  0.88643753  0.93674277  0.56351221    -0.59100
N325        N  0.94301347  0.96212656  0.58214150    -0.04200
N326        N  0.93287629  0.93638898  0.61074806    -0.57000
N327        N  0.91477529  0.05511130  0.55606872    -0.03800
N328        N  0.88683391  0.08149288  0.56716687    -0.59500
C329        C  0.89990182  0.09812918  0.60216217     0.97300
C330        C  0.89712585  0.92064031  0.59944264     0.97100
N331        N  0.94146016  0.96176366  0.42794410    -0.05100
N332        N  0.93073579  0.93780193  0.39815767    -0.57600
N333        N  0.91354988  0.05429995  0.45707956    -0.03200
N334        N  0.88452621  0.07990998  0.44774383    -0.58800
N335        N  0.94094155  0.05365548  0.42830003    -0.05100
N336        N  0.93070085  0.07905040  0.39930523    -0.57900
N337        N  0.91394532  0.96184718  0.45657812    -0.02800
N338        N  0.88479771  0.93729568  0.44652386    -0.58900
Mn339      Mn  0.91372230  0.00849283  0.50609970     1.18400
C340        C  0.89481884  0.92234910  0.40967993     0.99400
C341        C  0.89545115  0.09588728  0.41153804     1.00000
N342        N  0.04277133  0.96343487  0.58253828    -0.05100
N343        N  0.05626577  0.94163279  0.61303130    -0.61400
N344        N  0.06802073  0.05404664  0.55320835    -0.03900
N345        N  0.09749779  0.07804481  0.56357884    -0.62100
N346        N  0.03927052  0.05586926  0.58044638    -0.04600
N347        N  0.04843686  0.08231005  0.60846235    -0.61700
N348        N  0.06871170  0.96141656  0.55252093    -0.03500
N349        N  0.09883408  0.93679532  0.56148431    -0.62400
Mn350      Mn  0.99206962  0.00882854  0.58259319     1.10700
C351        C  0.09158007  0.92498159  0.59989433     1.00600
C352        C  0.08558774  0.09555075  0.59868399     1.00700
N353        N  0.03766541  0.05298798  0.42854647    -0.04600
N354        N  0.04428071  0.08035623  0.40075898    -0.60000
N355        N  0.06674976  0.96075418  0.45752251    -0.04000
N356        N  0.09475770  0.93359063  0.44928576    -0.56700
N357        N  0.03870881  0.96030420  0.42990908    -0.05300
N358        N  0.04787933  0.93301342  0.40261492    -0.59600
N359        N  0.06594591  0.05411006  0.45590212    -0.04300
N360        N  0.09190218  0.08269375  0.44676111    -0.56800
Mn361      Mn  0.98997631  0.00705207  0.42802536     1.20200
Mn362      Mn  0.06796370  0.00767899  0.50458665     1.10100
Cl363      Cl  0.99073512  0.00791550  0.50537288    -0.84700
C364        C  0.07742845  0.10001470  0.41248064     0.97600
C365        C  0.08332357  0.91640436  0.41430174     0.97400
C366        C  0.86766052  0.89469159  0.38264163    -0.01300
C367        C  0.11122955  0.88892869  0.38742182    -0.01300
C368        C  0.11948252  0.89818743  0.62697381    -0.01300
C369        C  0.87512723  0.12747335  0.63080934    -0.01300
C370        C  0.86979602  0.89227646  0.62591207    -0.01300
C371        C  0.71197941  0.73933600  0.48196782     0.03500
C372        C  0.71391545  0.73748882  0.52452364     0.03500
C373        C  0.74183787  0.76112681  0.54492495    -0.17000
C374        C  0.76764186  0.78714411  0.52443862     0.03500
C375        C  0.76520076  0.78906381  0.48223162     0.03500
C376        C  0.73782169  0.76521914  0.46158806    -0.17000
H377        H  0.73690126  0.76669760  0.42896151     0.05500
H378        H  0.74296658  0.75979163  0.57754422     0.05500
C379        C  0.10115821  0.12972948  0.38500974    -0.01300
C380        C  0.11319055  0.12348839  0.62448323    -0.01300
C381        C  0.02168773  0.74382582  0.78273860     0.03500
C382        C  0.97965554  0.74005964  0.78089738     0.03500
C383        C  0.95806403  0.76412078  0.75390977    -0.17000
C384        C  0.97702337  0.79185833  0.72872951     0.03500
C385        C  0.01912965  0.79562858  0.73012345     0.03500
C386        C  0.04093119  0.77176770  0.75744549    -0.17000
H387        H  0.07324270  0.77456102  0.75867177     0.05500
H388        H  0.92569357  0.76161669  0.75292298     0.05500
C389        C  0.71494898  0.03045666  0.78711081     0.03500
C390        C  0.71080219  0.98923316  0.78224852     0.03500
C391        C  0.73555569  0.96916414  0.75455905    -0.17000
C392        C  0.76405838  0.98975309  0.73143604     0.03500
C393        C  0.76711024  0.03147189  0.73520037     0.03500
C394        C  0.74282735  0.05129872  0.76350294    -0.17000
H395        H  0.74534023  0.08337948  0.76695156     0.05500
H396        H  0.73296557  0.93706477  0.75131080     0.05500
C397        C  0.76632947  0.73590205  0.02000682     0.03500
C398        C  0.76811904  0.73694917  0.97755735     0.03500
C399        C  0.74300285  0.76347430  0.95646101    -0.17000
C400        C  0.71595636  0.78842379  0.97698968     0.03500
C401        C  0.71443214  0.78735942  0.01925074     0.03500
C402        C  0.73902297  0.76072668  0.04018766    -0.17000
H403        H  0.73707753  0.75957272  0.07284221     0.05500
H404        H  0.74410831  0.76430243  0.92376605     0.05500
C405        C  0.95148796  0.81710270  0.70177184    -0.04100
C406        C  0.94921110  0.85860569  0.70695701    -0.01200
C407        C  0.92562322  0.88255328  0.68104543     0.03800
C408        C  0.89901447  0.86481584  0.65210911    -0.04100
C409        C  0.89717884  0.82180428  0.65305264    -0.01200
C410        C  0.92601520  0.79898334  0.67395962     0.03800
C411        C  0.96726509  0.87646826  0.74214590     0.38400
C412        C  0.86185627  0.79961703  0.64182925     0.38400
C413        C  0.92710320  0.75581542  0.66916489     0.36800
C414        C  0.92441720  0.92505136  0.69001043     0.36800
N415        N  0.92789913  0.72151918  0.66536585    -0.38000
N416        N  0.92374501  0.95868340  0.69776842    -0.38000
N417        N  0.83430375  0.78022046  0.63465839    -0.37400
N418        N  0.98019706  0.89146361  0.77046753    -0.37400
C419        C  0.84246645  0.91910933  0.65396344    -0.04100
C420        C  0.81635229  0.94934067  0.63736293    -0.01200
C421        C  0.78944421  0.97088149  0.66245202     0.03800
C422        C  0.79122915  0.96661295  0.70449280    -0.04100
C423        C  0.81686835  0.93771053  0.72107516    -0.01200
C424        C  0.83715023  0.91074279  0.69619414     0.03800
C425        C  0.81049201  0.95349307  0.59431369     0.38400
C426        C  0.82287184  0.93471834  0.76411285     0.38400
C427        C  0.84388105  0.87157019  0.71414067     0.36800
C428        C  0.75733784  0.99453506  0.64474593     0.36800
N429        N  0.84790523  0.84093353  0.72988995    -0.38000
N430        N  0.73140316  0.01241982  0.63007299    -0.38000
N431        N  0.83076921  0.93168172  0.79778322    -0.37400
N432        N  0.80379281  0.95698238  0.56032291    -0.37400
C433        C  0.84167097  0.86670477  0.59746648    -0.04100
C434        C  0.85898282  0.84407023  0.56508703    -0.01200
C435        C  0.83578508  0.81625871  0.54330877     0.03800
C436        C  0.79365218  0.81486328  0.54822779    -0.04100
C437        C  0.77557179  0.83933724  0.57745645    -0.01200
C438        C  0.79916210  0.86062555  0.60477045     0.03800
C439        C  0.90189364  0.84494666  0.55737106     0.38400
C440        C  0.73194983  0.84098369  0.58120188     0.38400
C441        C  0.77851628  0.86926952  0.64243874     0.36800
C442        C  0.85621650  0.78652958  0.51892069     0.36800
N443        N  0.75961842  0.87470544  0.67132401    -0.38000
N444        N  0.87362154  0.76278522  0.50040737    -0.38000
N445        N  0.69737046  0.84224215  0.58432688    -0.37400
N446        N  0.93608903  0.84539300  0.55121295    -0.37400
C447        C  0.79456891  0.05512741  0.70902832    -0.04100
C448        C  0.77895348  0.08530928  0.68419295    -0.01200
C449        C  0.80470270  0.11177986  0.66456182     0.03800
C450        C  0.84625723  0.10142261  0.65797220    -0.04100
C451        C  0.86168729  0.06972421  0.68290288    -0.01200
C452        C  0.83637242  0.04953890  0.71042639     0.03800
C453        C  0.73617933  0.09061433  0.67887944     0.38400
C454        C  0.90428810  0.06209280  0.68678738     0.38400
C455        C  0.85399779  0.02669395  0.74313467     0.36800
C456        C  0.78878343  0.15213381  0.66009013     0.36800
N457        N  0.86939624  0.00998306  0.76943703    -0.38000
N458        N  0.77482959  0.18382733  0.65792011    -0.38000
N459        N  0.93789948  0.05525805  0.69213064    -0.37400
N460        N  0.70264172  0.09601636  0.67208638    -0.37400
C461        C  0.04066387  0.82465859  0.70344569    -0.04100
C462        C  0.06172633  0.85669263  0.72034429    -0.01200
C463        C  0.08018792  0.88505011  0.69519314     0.03800
C464        C  0.08661816  0.87690046  0.65377078    -0.04100
C465        C  0.05933589  0.84930393  0.63626122    -0.01200
C466        C  0.03832874  0.82202394  0.66101268     0.03800
C467        C  0.06513720  0.86054474  0.76367521     0.38400
C468        C  0.05607130  0.84567532  0.59282691     0.38400
C469        C  0.02054339  0.78741806  0.64252438     0.36800
C470        C  0.08582132  0.92457530  0.71099098     0.36800
N471        N  0.00777631  0.75960971  0.62682765    -0.38000
N472        N  0.08884146  0.95617485  0.72420511    -0.38000
N473        N  0.05333126  0.84274666  0.55826682    -0.37400
N474        N  0.06836370  0.86342487  0.79819854    -0.37400
C475        C  0.84176268  0.86593427  0.41045487    -0.04100
C476        C  0.83884994  0.82334208  0.40346221    -0.01200
C477        C  0.81770271  0.79872465  0.43014030     0.03800
C478        C  0.79148693  0.81550633  0.45846494    -0.04100
C479        C  0.78820947  0.85701075  0.46198496    -0.01200
C480        C  0.81454511  0.88208729  0.44053489     0.03800
C481        C  0.84903510  0.80354477  0.36588835     0.38400
C482        C  0.75464491  0.87413742  0.48441695     0.38400
C483        C  0.80667420  0.92466352  0.44473504     0.36800
C484        C  0.82062952  0.75538743  0.42633512     0.36800
N485        N  0.79917912  0.95824425  0.44852653    -0.38000
N486        N  0.82284316  0.72106831  0.42316930    -0.38000
N487        N  0.72758725  0.88829177  0.50125505    -0.37400
N488        N  0.85539420  0.78509367  0.33709843    -0.37400
C489        C  0.13973599  0.86340980  0.41638814    -0.04100
C490        C  0.18250291  0.85838600  0.41014439    -0.01200
C491        C  0.20610662  0.83552755  0.43699998     0.03800
C492        C  0.18818207  0.81021015  0.46554362    -0.04100
C493        C  0.14606535  0.81128912  0.46976581    -0.01200
C494        C  0.12242833  0.83933519  0.44780118     0.03800
C495        C  0.20333658  0.87010189  0.37349124     0.38400
C496        C  0.12646745  0.78035942  0.49307635     0.38400
C497        C  0.07928222  0.83876279  0.45393611     0.36800
C498        C  0.24958185  0.83640409  0.43328941     0.36800
N499        N  0.04489748  0.83778154  0.45872296    -0.38000
N500        N  0.28406832  0.83778758  0.42981859    -0.38000
N501        N  0.11043431  0.75516038  0.51057715    -0.37400
N502        N  0.22186432  0.87834913  0.34509493    -0.37400
C503        C  0.14619324  0.86638368  0.60216325    -0.04100
C504        C  0.14644634  0.82357894  0.61002967    -0.01200
C505        C  0.16687778  0.79661438  0.58434076     0.03800
C506        C  0.19434771  0.81047790  0.55582445    -0.04100
C507        C  0.20122071  0.85128497  0.55292070    -0.01200
C508        C  0.17538405  0.87891658  0.57237189     0.03800
C509        C  0.13018381  0.80437106  0.64561650     0.38400
C510        C  0.23692558  0.86486901  0.53165320     0.38400
C511        C  0.18133164  0.91946873  0.55926858     0.36800
C512        C  0.16123981  0.75372894  0.58883390     0.36800
N513        N  0.18987661  0.94953256  0.54443725    -0.38000
N514        N  0.15668319  0.71976044  0.59270505    -0.38000
N515        N  0.26575143  0.87610617  0.51590376    -0.37400
N516        N  0.11872784  0.78547500  0.67251923    -0.37400
C517        C  0.84436816  0.14786833  0.42171634    -0.04100
C518        C  0.80298812  0.14090495  0.42958717    -0.01200
C519        C  0.77938677  0.17103173  0.44700163     0.03800
C520        C  0.79797921  0.20282924  0.46675535    -0.04100
C521        C  0.84019895  0.20334090  0.46944175    -0.01200
C522        C  0.86339494  0.17437822  0.44881502     0.03800
C523        C  0.78519617  0.10195797  0.42429872     0.38400
C524        C  0.86003928  0.23747198  0.48674667     0.38400
C525        C  0.90654922  0.17480205  0.45327267     0.36800
C526        C  0.73606922  0.16974544  0.44320305     0.36800
N527        N  0.94072811  0.17607954  0.45860773    -0.38000
N528        N  0.70159009  0.16916917  0.43960724    -0.38000
N529        N  0.87654503  0.26503916  0.49894815    -0.37400
N530        N  0.77053539  0.07107586  0.42047804    -0.37400
C531        C  0.79745381  0.20829107  0.55537400    -0.04100
C532        C  0.79160734  0.16690946  0.55629733    -0.01200
C533        C  0.81852604  0.14130310  0.57703798     0.03800
C534        C  0.84935073  0.15707480  0.60287953    -0.04100
C535        C  0.85000447  0.20019502  0.60586185    -0.01200
C536        C  0.82711724  0.22466024  0.57973863     0.03800
C537        C  0.75495014  0.15089702  0.53973949     0.38400
C538        C  0.86663775  0.22149869  0.63964209     0.38400
C539        C  0.83239664  0.26772698  0.57985910     0.36800
C540        C  0.80866263  0.09909030  0.57663756     0.36800
N541        N  0.83675144  0.30192451  0.57987944    -0.38000
N542        N  0.79990135  0.06576170  0.57627554    -0.38000
N543        N  0.87827042  0.24068175  0.66591541    -0.37400
N544        N  0.72543960  0.13755414  0.52793664    -0.37400
C545        C  0.78741692  0.97300708  0.31019721    -0.04100
C546        C  0.77238438  0.95124171  0.34279417    -0.01200
C547        C  0.79572609  0.91982041  0.35802137     0.03800
C548        C  0.83887422  0.92231537  0.35674529    -0.04100
C549        C  0.85443838  0.94869953  0.32646832    -0.01200
C550        C  0.82766333  0.96640061  0.29875122     0.03800
C551        C  0.73128575  0.95682573  0.35646211     0.38400
C552        C  0.89701565  0.95278397  0.31865145     0.38400
C553        C  0.83989369  0.97176155  0.25714543     0.36800
C554        C  0.77439418  0.88259325  0.36306849     0.36800
N555        N  0.84952476  0.97502638  0.22377135    -0.38000
N556        N  0.75627695  0.85343856  0.36594986    -0.38000
N557        N  0.93079104  0.95622627  0.31132210    -0.37400
N558        N  0.69867086  0.96167537  0.36765904    -0.37400
C559        C  0.78539102  0.06409185  0.30465540    -0.04100
C560        C  0.82544479  0.05327764  0.30927643    -0.01200
C561        C  0.84379529  0.06515243  0.34476112     0.03800
C562        C  0.83830861  0.10507151  0.35754660    -0.04100
C563        C  0.80434724  0.12524699  0.33966347    -0.01200
C564        C  0.77464248  0.10222498  0.32004163     0.03800
C565        C  0.84923398  0.05716597  0.27304982     0.38400
C566        C  0.79664545  0.16758040  0.34344605     0.38400
C567        C  0.73385301  0.11731854  0.31856894     0.36800
C568        C  0.85349691  0.03392223  0.37276767     0.36800
N569        N  0.70162204  0.13038350  0.31848889    -0.38000
N570        N  0.86001773  0.00887902  0.39584140    -0.38000
N571        N  0.78726942  0.20086731  0.34462713    -0.37400
N572        N  0.86805721  0.06116891  0.24392875    -0.37400
C573        C  0.03556118  0.81157731  0.30906225    -0.04100
C574        C  0.06220203  0.79416493  0.33660997    -0.01200
C575        C  0.08884334  0.81793284  0.35853130     0.03800
C576        C  0.08358466  0.86078579  0.36075247    -0.04100
C577        C  0.05530199  0.87780048  0.33239164    -0.01200
C578        C  0.03360667  0.85335809  0.30580239     0.03800
C579        C  0.06410042  0.75087268  0.34059867     0.38400
C580        C  0.05305160  0.92048948  0.32418606     0.38400
C581        C  0.01212428  0.87159498  0.27242879     0.36800
C582        C  0.12537111  0.79707930  0.37002576     0.36800
N583        N  0.99594880  0.88715018  0.24587837    -0.38000
N584        N  0.15379699  0.77842609  0.37745622    -0.38000
N585        N  0.05112789  0.95425083  0.31684452    -0.37400
N586        N  0.06551311  0.71648168  0.34354527    -0.37400
C587        C  0.94562740  0.81579907  0.30674416    -0.04100
C588        C  0.91764360  0.84155680  0.28835465    -0.01200
C589        C  0.88978225  0.86297579  0.31200526     0.03800
C590        C  0.89651368  0.86901543  0.35447730    -0.04100
C591        C  0.92756031  0.84492128  0.37219909    -0.01200
C592        C  0.94848628  0.81592544  0.34908784     0.03800
C593        C  0.91515123  0.84380436  0.24467475     0.38400
C594        C  0.93443184  0.84540446  0.41531624     0.38400
C595        C  0.96865923  0.78317346  0.36947103     0.36800
C596        C  0.85101108  0.86918005  0.29312028     0.36800
N597        N  0.98340511  0.75664159  0.38634511    -0.38000
N598        N  0.82056746  0.87269161  0.27687880    -0.38000
N599        N  0.94012371  0.84557629  0.44963460    -0.37400
N600        N  0.91331590  0.84567580  0.20994249    -0.37400
C601        C  0.62899644  0.10316778  0.15493867    -0.04100
C602        C  0.62843739  0.10729951  0.19788237    -0.01200
C603        C  0.64750802  0.07895304  0.22217044     0.03800
C604        C  0.67579917  0.05259578  0.20526029    -0.04100
C605        C  0.68251649  0.05227517  0.16360697    -0.01200
C606        C  0.65910762  0.07661435  0.13833584     0.03800
C607        C  0.62008080  0.14522948  0.21746413     0.38400
C608        C  0.71592232  0.02935178  0.14694079     0.38400
C609        C  0.67182055  0.07884848  0.09633199     0.36800
C610        C  0.64002026  0.07906973  0.26535585     0.36800
N611        N  0.68249278  0.08050949  0.06313189    -0.38000
N612        N  0.63308501  0.07885249  0.29953628    -0.38000
N613        N  0.74266563  0.01165006  0.13329907    -0.37400
N614        N  0.61560634  0.17515939  0.23423744    -0.37400
C615        C  0.68305766  0.96609643  0.80815689    -0.04100
C616        C  0.69877400  0.93610357  0.83281158    -0.01200
C617        C  0.67332852  0.90746584  0.84834581     0.03800
C618        C  0.63212615  0.91750646  0.85637414    -0.04100
C619        C  0.61648674  0.95146837  0.83529859    -0.01200
C620        C  0.64102083  0.97136099  0.80689450     0.03800
C621        C  0.74067127  0.93403175  0.84351339     0.38400
C622        C  0.57422495  0.96193895  0.83733654     0.38400
C623        C  0.62239570  0.98987785  0.77229211     0.36800
C624        C  0.68965917  0.86715666  0.84808648     0.36800
N625        N  0.60614620  0.00186372  0.74401187    -0.38000
N626        N  0.70472803  0.83593086  0.84664342    -0.38000
N627        N  0.54055822  0.97048298  0.83890622    -0.37400
N628        N  0.77303217  0.93165479  0.85552662    -0.37400
C629        C  0.68775804  0.81380746  0.95387596    -0.04100
C630        C  0.69448568  0.85465741  0.94949762    -0.01200
C631        C  0.66386211  0.87963668  0.93442434     0.03800
C632        C  0.63263746  0.86292676  0.90992534    -0.04100
C633        C  0.63401926  0.82017229  0.90599521    -0.01200
C634        C  0.65531406  0.79700129  0.93389785     0.03800
C635        C  0.73484840  0.86982303  0.95339307     0.38400
C636        C  0.62467802  0.79972771  0.86883582     0.38400
C637        C  0.64523422  0.75543973  0.93940125     0.36800
C638        C  0.67039809  0.92213129  0.93856230     0.36800
N639        N  0.63547443  0.72273916  0.94401473    -0.38000
N640        N  0.67765220  0.95559761  0.94241016    -0.38000
N641        N  0.61881626  0.78283840  0.83916657    -0.37400
N642        N  0.76712376  0.88208682  0.95458609    -0.37400
C643        C  0.57373417  0.86622060  0.85658494    -0.04100
C644        C  0.57317692  0.86691684  0.81283413    -0.01200
C645        C  0.54363263  0.84632008  0.79117638     0.03800
C646        C  0.52351430  0.81450038  0.80930526    -0.04100
C647        C  0.52787959  0.80869504  0.85097302    -0.01200
C648        C  0.54732363  0.83738170  0.87496909     0.03800
C649        C  0.60624795  0.87998779  0.78763735     0.38400
C650        C  0.51981496  0.76967216  0.86803339     0.38400
C651        C  0.54641336  0.83014726  0.91814129     0.36800
C652        C  0.53751372  0.85483360  0.74866538     0.36800
N653        N  0.54542127  0.82353218  0.95236330    -0.38000
N654        N  0.53290521  0.86170760  0.71484068    -0.38000
N655        N  0.51549193  0.73828832  0.88189428    -0.37400
N656        N  0.63175969  0.88879339  0.76560587    -0.37400
C657        C  0.39520338  0.86326464  0.86280549    -0.04100
C658        C  0.41618044  0.82951274  0.87992796    -0.01200
C659        C  0.42795372  0.79731664  0.85536164     0.03800
C660        C  0.43614627  0.80443589  0.81473592    -0.04100
C661        C  0.42082320  0.83922608  0.79730026    -0.01200
C662        C  0.39323844  0.86240275  0.81930727     0.03800
C663        C  0.43036102  0.82730176  0.92080067     0.38400
C664        C  0.43012133  0.84937522  0.75576860     0.38400
C665        C  0.36017179  0.87684590  0.79523522     0.36800
C666        C  0.42823530  0.75703762  0.87122949     0.36800
N667        N  0.33562629  0.88644022  0.77260618    -0.38000
N668        N  0.42691133  0.72479890  0.88371041    -0.38000
N669        N  0.43776673  0.85833273  0.72295980    -0.37400
N670        N  0.44442109  0.82399500  0.95241810    -0.37400
C671        C  0.63770643  0.86015445  0.09556856    -0.04100
C672        C  0.63886087  0.81717647  0.09734527    -0.01200
C673        C  0.65629296  0.79533416  0.06580440     0.03800
C674        C  0.68657629  0.81297476  0.04277622    -0.04100
C675        C  0.69508045  0.85335069  0.04905680    -0.01200
C676        C  0.66702557  0.87794364  0.06929544     0.03800
C677        C  0.63258085  0.79467509  0.13424951     0.38400
C678        C  0.73589357  0.86704593  0.04383096     0.38400
C679        C  0.67489512  0.92040617  0.06889853     0.36800
C680        C  0.64732704  0.75329399  0.06111618     0.36800
N681        N  0.68278422  0.95395429  0.06841242    -0.38000
N682        N  0.64017870  0.71983455  0.05723892    -0.38000
N683        N  0.76875939  0.87764941  0.04184520    -0.37400
N684        N  0.62887663  0.77562677  0.16315578    -0.37400
C685        C  0.63600908  0.91426831  0.15189206    -0.04100
C686        C  0.61665601  0.94448048  0.17567049    -0.01200
C687        C  0.63807660  0.96604332  0.20511243     0.03800
C688        C  0.68032523  0.96332295  0.20731904    -0.04100
C689        C  0.70011065  0.93456857  0.18328942    -0.01200
C690        C  0.67808176  0.90754944  0.15987461     0.03800
C691        C  0.57343411  0.94976723  0.17427732     0.38400
C692        C  0.74360317  0.93084938  0.18418325     0.38400
C693        C  0.69849603  0.86993498  0.15158637     0.36800
C694        C  0.61573791  0.98673489  0.23635535     0.36800
N695        N  0.71614717  0.84048800  0.14623562    -0.38000
N696        N  0.59660505  0.00155906  0.26144319    -0.38000
N697        N  0.77815058  0.92745394  0.18492086    -0.37400
N698        N  0.53896491  0.95381595  0.17351251    -0.37400
C699        C  0.64235293  0.10518478  0.86551729    -0.04100
C700        C  0.66882642  0.07519484  0.88239089    -0.01200
C701        C  0.69399083  0.05201977  0.85684314     0.03800
C702        C  0.68855193  0.05306522  0.81491988    -0.04100
C703        C  0.66058975  0.07944739  0.79856838    -0.01200
C704        C  0.64460808  0.10961662  0.82239808     0.03800
C705        C  0.67666755  0.07264355  0.92534937     0.38400
C706        C  0.65050447  0.07852358  0.75615080     0.38400
C707        C  0.64233462  0.14746897  0.80117604     0.36800
C708        C  0.72797217  0.03037822  0.87343828     0.36800
N709        N  0.64243962  0.17601959  0.78144157    -0.38000
N710        N  0.75561986  0.01452660  0.88727082    -0.38000
N711        N  0.64013952  0.07830689  0.72302600    -0.37400
N712        N  0.68365296  0.07039828  0.95937651    -0.37400
C713        C  0.40187777  0.16160417  0.86144409    -0.04100
C714        C  0.43256241  0.18801324  0.87531769    -0.01200
C715        C  0.45537408  0.21116611  0.84763916     0.03800
C716        C  0.45194098  0.20533198  0.80570935    -0.04100
C717        C  0.42195714  0.17983181  0.79183249    -0.01200
C718        C  0.39390096  0.16378240  0.81885985     0.03800
C719        C  0.43606906  0.19784079  0.91768497     0.38400
C720        C  0.41759441  0.17233909  0.74898409     0.38400
C721        C  0.35367407  0.16063967  0.80265771     0.36800
C722        C  0.47906725  0.24397010  0.86248714     0.36800
N723        N  0.32209394  0.15977863  0.78846282    -0.38000
N724        N  0.49692232  0.27044489  0.87520290    -0.38000
N725        N  0.41406906  0.16627148  0.71493565    -0.37400
N726        N  0.43905652  0.20647240  0.95122648    -0.37400
C727        C  0.54221242  0.20388115  0.80420228    -0.04100
C728        C  0.53724337  0.16228187  0.80875890    -0.01200
C729        C  0.55733582  0.14096541  0.83970502     0.03800
C730        C  0.58749757  0.15962173  0.86341280    -0.04100
C731        C  0.59609379  0.20065308  0.85349692    -0.01200
C732        C  0.57068671  0.22292214  0.82827708     0.03800
C733        C  0.51397878  0.14047695  0.77960195     0.38400
C734        C  0.63474840  0.21903649  0.86099989     0.38400
C735        C  0.57589096  0.26578997  0.82658428     0.36800
C736        C  0.55024030  0.09843434  0.84321298     0.36800
N737        N  0.58199372  0.29962843  0.82732333    -0.38000
N738        N  0.54476993  0.06448987  0.84570155    -0.38000
N739        N  0.66510167  0.23487217  0.86532020    -0.37400
N740        N  0.49617549  0.12227508  0.75637372    -0.37400
C741        C  0.43985236  0.80974545  0.19426102    -0.04100
C742        C  0.44887182  0.85104331  0.19432708    -0.01200
C743        C  0.42933671  0.87768404  0.16741298     0.03800
C744        C  0.39462644  0.86511980  0.14605698    -0.04100
C745        C  0.38010473  0.82617356  0.15610346    -0.01200
C746        C  0.40594746  0.79744528  0.17257237     0.03800
C747        C  0.47173102  0.86777080  0.22699727     0.38400
C748        C  0.33749918  0.81708931  0.15539603     0.38400
C749        C  0.39609494  0.75561575  0.16814994     0.36800
C750        C  0.43974219  0.91961705  0.16878495     0.36800
N751        N  0.38801155  0.72233832  0.16457177    -0.38000
N752        N  0.44762685  0.95311787  0.17004262    -0.38000
N753        N  0.30363364  0.80986636  0.15540872    -0.37400
N754        N  0.48832502  0.88255090  0.25340918    -0.37400
C755        C  0.53068107  0.80504464  0.19692932    -0.04100
C756        C  0.52906227  0.80526798  0.15466518    -0.01200
C757        C  0.55251929  0.83224694  0.13156163     0.03800
C758        C  0.58086862  0.85872766  0.15035665    -0.04100
C759        C  0.58523135  0.85333929  0.19350749    -0.01200
C760        C  0.55858047  0.82947833  0.21605341     0.03800
C761        C  0.50551103  0.77504141  0.13469515     0.38400
C762        C  0.62012490  0.86526688  0.21618744     0.38400
C763        C  0.56078181  0.82935795  0.25993891     0.36800
C764        C  0.55171091  0.82658616  0.08818611     0.36800
N765        N  0.56260662  0.82929521  0.29471522    -0.38000
N766        N  0.55104672  0.82109078  0.05380867    -0.38000
N767        N  0.64679852  0.87305720  0.23674734    -0.37400
N768        N  0.48718690  0.75065449  0.11880649    -0.37400
C769        C  0.20977072  0.96779535  0.69856087    -0.04100
C770        C  0.20043708  0.97828122  0.65886418    -0.01200
C771        C  0.16678997  0.96145346  0.63986546     0.03800
C772        C  0.15120721  0.92340804  0.65242917    -0.04100
C773        C  0.17024501  0.90744445  0.68794636    -0.01200
C774        C  0.19298069  0.93222655  0.71350359     0.03800
C775        C  0.22696870  0.00430086  0.63635789     0.38400
C776        C  0.16738385  0.86642210  0.70087507     0.38400
C777        C  0.19839542  0.92068423  0.75535366     0.36800
C778        C  0.14975800  0.98562936  0.60843468     0.36800
N779        N  0.20239287  0.91114117  0.78860296    -0.38000
N780        N  0.13785025  0.00659802  0.58347814    -0.38000
N781        N  0.16842816  0.83510800  0.71558038    -0.37400
N782        N  0.24868763  0.02411446  0.61799162    -0.37400
C783        C  0.20131074  0.05947654  0.70351860    -0.04100
C784        C  0.21505678  0.08999463  0.67822269    -0.01200
C785        C  0.18779116  0.11233643  0.65442461     0.03800
C786        C  0.14675494  0.09916142  0.64881785    -0.04100
C787        C  0.13562479  0.06558131  0.67344503    -0.01200
C788        C  0.16052579  0.05141141  0.70449342     0.03800
C789        C  0.25785607  0.09870621  0.67697209     0.38400
C790        C  0.10357137  0.03911494  0.66335050     0.38400
C791        C  0.14426674  0.02945851  0.73844238     0.36800
C792        C  0.20560931  0.14728748  0.63635762     0.36800
N793        N  0.13242588  0.01343450  0.76698292    -0.38000
N794        N  0.22434107  0.17304010  0.62282823    -0.38000
N795        N  0.07969113  0.01548711  0.65596773    -0.37400
N796        N  0.29176594  0.10568353  0.67604197    -0.37400
C797        C  0.30323206  0.06178926  0.81057947    -0.04100
C798        C  0.34499258  0.06475137  0.80794819    -0.01200
C799        C  0.36648074  0.08041192  0.84017904     0.03800
C800        C  0.34694107  0.10789744  0.86707320    -0.04100
C801        C  0.30370789  0.11043536  0.86444777    -0.01200
C802        C  0.28271846  0.08286914  0.84088469     0.03800
C803        C  0.36461097  0.06130288  0.76904998     0.38400
C804        C  0.27990697  0.14443529  0.87772843     0.38400
C805        C  0.23942598  0.07975941  0.84479624     0.36800
C806        C  0.40956648  0.07336382  0.84049345     0.36800
N807        N  0.20494474  0.07752772  0.84797460    -0.38000
N808        N  0.44381149  0.06742531  0.84060297    -0.38000
N809        N  0.25949655  0.17108164  0.88690004    -0.37400
N810        N  0.38022198  0.06080311  0.73783372    -0.37400
C811        C  0.35133069  0.92891087  0.86566611    -0.04100
C812        C  0.37320318  0.94957449  0.83518888    -0.01200
C813        C  0.35209447  0.96792291  0.80353077     0.03800
C814        C  0.31068745  0.97535814  0.80778574    -0.04100
C815        C  0.29144014  0.96594921  0.84447724    -0.01200
C816        C  0.31216423  0.94414736  0.87418220     0.03800
C817        C  0.41670707  0.94800589  0.83350199     0.38400
C818        C  0.24960755  0.97670472  0.85083447     0.38400
C819        C  0.29331272  0.93920613  0.91332380     0.36800
C820        C  0.37165547  0.97222593  0.76469061     0.36800
N821        N  0.27742674  0.93530836  0.94413580    -0.38000
N822        N  0.38754926  0.97394212  0.73366126    -0.38000
N823        N  0.21616249  0.98482974  0.85594340    -0.37400
N824        N  0.45137121  0.94677417  0.83223135    -0.37400
C825        C  0.08305703  0.65545233  0.15013866    -0.04100
C826        C  0.04904418  0.64056602  0.17179797    -0.01200
C827        C  0.02914808  0.66431511  0.20115270     0.03800
C828        C  0.03522198  0.70592322  0.20242957    -0.04100
C829        C  0.06521321  0.72209671  0.17764747    -0.01200
C830        C  0.09262209  0.69674413  0.15778964     0.03800
C831        C  0.03678596  0.59958587  0.16786505     0.38400
C832        C  0.07019172  0.76508106  0.17476088     0.38400
C833        C  0.13283089  0.71273410  0.15519651     0.36800
C834        C  0.00666408  0.64482594  0.23300137     0.36800
N835        N  0.16411315  0.72739000  0.15510880    -0.38000
N836        N  0.99012341  0.62826189  0.25872459    -0.38000
N837        N  0.07418106  0.79924449  0.17220535    -0.37400
N838        N  0.02584088  0.56720181  0.16464522    -0.37400
C839        C  0.84289531  0.66111380  0.09554752    -0.04100
C840        C  0.83711274  0.70341304  0.10232073    -0.01200
C841        C  0.81744654  0.72748885  0.07388202     0.03800
C842        C  0.79334407  0.71008201  0.04452475    -0.04100
C843        C  0.79179047  0.66838160  0.04198389    -0.01200
C844        C  0.81839132  0.64418324  0.06455361     0.03800
C845        C  0.84376196  0.72303142  0.14059059     0.38400
C846        C  0.75899539  0.64997005  0.02061200     0.38400
C847        C  0.81334302  0.60155657  0.06017749     0.36800
C848        C  0.81952763  0.77076481  0.07714315     0.36800
N849        N  0.80713189  0.56803331  0.05524810    -0.38000
N850        N  0.82118174  0.80508373  0.08011024    -0.38000
N851        N  0.73253999  0.63414682  0.00527698    -0.37400
N852        N  0.84787640  0.74084104  0.17004490    -0.37400
C853        C  0.94567253  0.70911101  0.20263299    -0.04100
C854        C  0.91716929  0.68351306  0.21943965    -0.01200
C855        C  0.88983321  0.66425841  0.19455893     0.03800
C856        C  0.89705166  0.66064056  0.15164390    -0.04100
C857        C  0.92594866  0.68787511  0.13507591    -0.01200
C858        C  0.94837844  0.71294001  0.16048539     0.03800
C859        C  0.91357122  0.67939508  0.26302129     0.38400
C860        C  0.92759628  0.69656304  0.09221001     0.38400
C861        C  0.97119255  0.74553300  0.14321177     0.36800
C862        C  0.85082796  0.65822384  0.21338801     0.36800
N863        N  0.98848929  0.77189884  0.12906534    -0.38000
N864        N  0.82042740  0.65512679  0.23010640    -0.38000
N865        N  0.92889168  0.70437366  0.05824929    -0.37400
N866        N  0.91065188  0.67613934  0.29761121    -0.37400
C867        C  0.84182019  0.41798957  0.85786276    -0.04100
C868        C  0.79913177  0.41371040  0.85287383    -0.01200
C869        C  0.77687700  0.44127072  0.82979863     0.03800
C870        C  0.79623117  0.46809616  0.80357397    -0.04100
C871        C  0.83849688  0.46871928  0.80296587    -0.01200
C872        C  0.86099910  0.44600363  0.83129055     0.03800
C873        C  0.77742717  0.37784454  0.86358827     0.38400
C874        C  0.85897088  0.49073571  0.77140822     0.38400
C875        C  0.90452575  0.44731546  0.82845732     0.36800
C876        C  0.73321194  0.44075738  0.83204964     0.36800
N877        N  0.93914035  0.44834365  0.82591942    -0.38000
N878        N  0.69854980  0.44017413  0.83373556    -0.38000
N879        N  0.87532724  0.50786846  0.74594676    -0.37400
N880        N  0.75837348  0.34992673  0.87049436    -0.37400
C881        C  0.08994498  0.66088586  0.85895845    -0.04100
C882        C  0.09833918  0.66598652  0.81627333    -0.01200
C883        C  0.07414841  0.69074155  0.79189919     0.03800
C884        C  0.04617659  0.71705369  0.80921542    -0.04100
C885        C  0.04199528  0.71804070  0.85129050    -0.01200
C886        C  0.06167358  0.68936249  0.87587668     0.03800
C887        C  0.13549216  0.65344779  0.79679289     0.38400
C888        C  0.02050500  0.75131479  0.86963233     0.38400
C889        C  0.05753547  0.69506459  0.91908932     0.36800
C890        C  0.07943606  0.69037373  0.74828944     0.36800
N891        N  0.05410667  0.70055207  0.95333991    -0.38000
N892        N  0.08349267  0.69012469  0.71366460    -0.38000
N893        N  0.00442509  0.77817989  0.88468831    -0.37400
N894        N  0.16452482  0.64498941  0.77934997    -0.37400
C895        C  0.84605867  0.65838011  0.90704732    -0.04100
C896        C  0.80315736  0.65839617  0.90279037    -0.01200
C897        C  0.77846500  0.68172360  0.92820265     0.03800
C898        C  0.79498868  0.70958626  0.95450851    -0.04100
C899        C  0.83670399  0.71213621  0.95785388    -0.01200
C900        C  0.86198052  0.68534243  0.93680824     0.03800
C901        C  0.78204019  0.64007110  0.86994235     0.38400
C902        C  0.85399386  0.74497664  0.98008949     0.38400
C903        C  0.90481629  0.69126646  0.94190553     0.36800
C904        C  0.73517174  0.67745924  0.92626515     0.36800
N905        N  0.93853001  0.69788097  0.94620096    -0.38000
N906        N  0.70102865  0.67244240  0.92409215    -0.38000
N907        N  0.86842543  0.77127212  0.99693224    -0.37400
N908        N  0.76147435  0.62832703  0.84481011    -0.37400
C909        C  0.90530115  0.66289647  0.85607567    -0.04100
C910        C  0.93813022  0.64675826  0.83329921    -0.01200
C911        C  0.96097914  0.67129922  0.80724060     0.03800
C912        C  0.95650299  0.71316293  0.80840179    -0.04100
C913        C  0.92642493  0.72987442  0.83305045    -0.01200
C914        C  0.89795477  0.70524697  0.85167720     0.03800
C915        C  0.94647952  0.60423065  0.83301906     0.38400
C916        C  0.92260686  0.77303244  0.83673147     0.38400
C917        C  0.85892645  0.72401122  0.85811512     0.36800
C918        C  0.98619390  0.65286308  0.77669524     0.36800
N919        N  0.82834611  0.74024090  0.86207180    -0.38000
N920        N  0.00531653  0.63718120  0.75212664    -0.38000
N921        N  0.91961091  0.80732689  0.83958848    -0.37400
N922        N  0.95408971  0.57051348  0.83196485    -0.37400
C923        C  0.85501776  0.60589882  0.84710618    -0.04100
C924        C  0.84465494  0.61733869  0.80635722    -0.01200
C925        C  0.82203992  0.59120094  0.78171619     0.03800
C926        C  0.80005020  0.55967238  0.79943025    -0.04100
C927        C  0.80766340  0.55139598  0.84025675    -0.01200
C928        C  0.84153478  0.56745027  0.85838864     0.03800
C929        C  0.85387132  0.65570392  0.78870885     0.38400
C930        C  0.77940749  0.53045356  0.86553728     0.38400
C931        C  0.87186107  0.53825011  0.86770250     0.36800
C932        C  0.82108155  0.59729448  0.73842940     0.36800
N933        N  0.89818735  0.51713954  0.87574028    -0.38000
N934        N  0.82062145  0.60180294  0.70388191    -0.38000
N935        N  0.75648577  0.51482668  0.88643663    -0.37400
N936        N  0.85979055  0.68568393  0.77241997    -0.37400
C937        C  0.14374111  0.60315348  0.86178283    -0.04100
C938        C  0.18678267  0.60679245  0.85986191    -0.01200
C939        C  0.21061408  0.57742150  0.84123070     0.03800
C940        C  0.19336474  0.54909902  0.81572106    -0.04100
C941        C  0.15136961  0.54901543  0.81123861    -0.01200
C942        C  0.12664138  0.57464772  0.83500206     0.03800
C943        C  0.20776579  0.64353786  0.86840451     0.38400
C944        C  0.13362710  0.52301850  0.78163167     0.38400
C945        C  0.08373517  0.57513249  0.82767731     0.36800
C946        C  0.25394691  0.57764251  0.84684541     0.36800
N947        N  0.04960933  0.57556922  0.82162231    -0.38000
N948        N  0.28834650  0.57766771  0.85116578    -0.38000
N949        N  0.11943958  0.50210431  0.75818678    -0.37400
N950        N  0.22631907  0.67196659  0.87396267    -0.37400
C951        C  0.19693026  0.45659580  0.81600857    -0.04100
C952        C  0.17870159  0.42332098  0.79781437    -0.01200
C953        C  0.14924641  0.40118680  0.81910152     0.03800
C954        C  0.13240944  0.41615825  0.85612818    -0.04100
C955        C  0.14519209  0.45451867  0.86690948    -0.01200
C956        C  0.18248886  0.46813843  0.85387765     0.03800
C957        C  0.18941167  0.41136011  0.75714607     0.38400
C958        C  0.11439676  0.48436723  0.87171197     0.38400
C959        C  0.20695386  0.49085286  0.88097865     0.36800
C960        C  0.13312604  0.36743800  0.79792144     0.36800
N961        N  0.22735213  0.50778852  0.90299736    -0.38000
N962        N  0.12127138  0.34255267  0.77723539    -0.38000
N963        N  0.08711087  0.50542430  0.87608803    -0.37400
N964        N  0.19703618  0.40010956  0.72511627    -0.37400
C965        C  0.84403470  0.60490859  0.15090550    -0.04100
C966        C  0.86428983  0.57816517  0.17824784    -0.01200
C967        C  0.84301427  0.55719049  0.20857790     0.03800
C968        C  0.80101323  0.55789760  0.20920813    -0.04100
C969        C  0.78026413  0.58161703  0.18121921    -0.01200
C970        C  0.80093535  0.60784777  0.15558080     0.03800
C971        C  0.90767124  0.57652794  0.17977713     0.38400
C972        C  0.73710451  0.57695087  0.17685930     0.38400
C973        C  0.77661212  0.64123918  0.14176520     0.36800
C974        C  0.86418725  0.53466744  0.23932896     0.36800
N975        N  0.75554372  0.66724987  0.13232149    -0.38000
N976        N  0.88082344  0.51681520  0.26408913    -0.38000
N977        N  0.70309043  0.57213054  0.17253839    -0.37400
N978        N  0.94222628  0.57518131  0.18178712    -0.37400
C979        C  0.79714538  0.46639995  0.20587960    -0.04100
C980        C  0.80882108  0.42677923  0.21664821    -0.01200
C981        C  0.82986917  0.40264197  0.18829190     0.03800
C982        C  0.85004004  0.42082513  0.15459362    -0.04100
C983        C  0.84667956  0.46268730  0.15243780    -0.01200
C984        C  0.81331887  0.48127195  0.16944138     0.03800
C985        C  0.80016811  0.41051135  0.25619692     0.38400
C986        C  0.88098328  0.48706264  0.14339567     0.38400
C987        C  0.78841226  0.50274278  0.14128776     0.36800
C988        C  0.82943829  0.35964100  0.19359519     0.36800
N989        N  0.76836196  0.51760416  0.11711319    -0.38000
N990        N  0.82884364  0.32537703  0.19788058    -0.38000
N991        N  0.90996555  0.50404973  0.13529600    -0.37400
N992        N  0.79364028  0.39741497  0.28782014    -0.37400
C993        C  0.09028681  0.14960560  0.65904331    -0.04100
C994        C  0.10218842  0.19005923  0.66828809    -0.01200
C995        C  0.07736163  0.21587004  0.69131202     0.03800
C996        C  0.04753748  0.20032192  0.71636368    -0.04100
C997        C  0.04307922  0.15905418  0.71764367    -0.01200
C998        C  0.06019454  0.13457334  0.68709612     0.03800
C999        C  0.14066903  0.20696414  0.65829230     0.38400
C1000       C  0.02127140  0.14154350  0.75140547     0.38400
C1001       C  0.04303884  0.09542031  0.68699901     0.36800
C1002       C  0.08333824  0.25880346  0.68982633     0.36800
N1003       N  0.02511600  0.06620615  0.69043201    -0.38000
N1004       N  0.08794643  0.29294929  0.68856801    -0.38000
N1005       N  0.00474980  0.12693106  0.77832974    -0.37400
N1006       N  0.16929401  0.22543063  0.65265405    -0.37400
C1007       C  0.90529052  0.15068839  0.65970563    -0.04100
C1008       C  0.89905668  0.15563029  0.70274126    -0.01200
C1009       C  0.92759920  0.17465250  0.72691427     0.03800
C1010       C  0.95708217  0.19878558  0.70941903    -0.04100
C1011       C  0.96164157  0.19835575  0.66714462    -0.01200
C1012       C  0.93857837  0.17214646  0.64291821     0.03800
C1013       C  0.86128962  0.14893530  0.72355964     0.38400
C1014       C  0.98552542  0.22917296  0.64836133     0.38400
C1015       C  0.94463388  0.17308009  0.59964193     0.36800
C1016       C  0.92397033  0.17265469  0.77068418     0.36800
N1017       N  0.94871465  0.17389082  0.56502125    -0.38000
N1018       N  0.92095305  0.17137128  0.80539286    -0.38000
N1019       N  0.00365895  0.25479697  0.63386484    -0.37400
N1020       N  0.83243014  0.14507909  0.74272317    -0.37400
C1021       C  0.94661361  0.30783775  0.81195432    -0.04100
C1022       C  0.92210610  0.33627643  0.79303373    -0.01200
C1023       C  0.89361496  0.35820072  0.81571514     0.03800
C1024       C  0.89702418  0.36193620  0.85912103    -0.04100
C1025       C  0.92383921  0.33333790  0.87757349    -0.01200
C1026       C  0.94417951  0.30415690  0.85405142     0.03800
C1027       C  0.92314617  0.34020533  0.74941543     0.38400
C1028       C  0.92545554  0.32767872  0.92083464     0.38400
C1029       C  0.95662075  0.26684338  0.87264108     0.36800
C1030       C  0.85734597  0.36781365  0.79361605     0.36800
N1031       N  0.96452040  0.23666712  0.88778690    -0.38000
N1032       N  0.82912580  0.37400917  0.77438676    -0.38000
N1033       N  0.92763319  0.32113663  0.95496188    -0.37400
N1034       N  0.92384456  0.34329138  0.71470983    -0.37400
C1035       C  0.03419108  0.30889041  0.81927830    -0.04100
C1036       C  0.03520448  0.34951282  0.80800413    -0.01200
C1037       C  0.05411109  0.37751069  0.83298500     0.03800
C1038       C  0.07565054  0.36408144  0.86738989    -0.04100
C1039       C  0.06324750  0.32686437  0.88364889    -0.01200
C1040       C  0.04793480  0.29770733  0.85772337     0.03800
C1041       C  0.02131953  0.36179053  0.76855104     0.38400
C1042       C  0.06732344  0.31779655  0.92610867     0.38400
C1043       C  0.05063288  0.25600616  0.86915382     0.36800
C1044       C  0.05220334  0.41934330  0.82195885     0.36800
N1045       N  0.05394491  0.22276535  0.87817612    -0.38000
N1046       N  0.04993543  0.45239192  0.81201868    -0.38000
N1047       N  0.07023053  0.31054471  0.96001698    -0.37400
N1048       N  0.01125688  0.37175853  0.73678602    -0.37400
C1049       C  0.68639521  0.21053192  0.05929960    -0.04100
C1050       C  0.70148437  0.18479686  0.08902069    -0.01200
C1051       C  0.67431107  0.16655911  0.11584913     0.03800
C1052       C  0.63346791  0.15896172  0.10307661    -0.04100
C1053       C  0.62217943  0.17986554  0.06738937    -0.01200
C1054       C  0.64493964  0.21214250  0.05447304     0.03800
C1055       C  0.74435738  0.17825036  0.09339694     0.38400
C1056       C  0.58979322  0.16888166  0.04139938     0.38400
C1057       C  0.62513046  0.25037118  0.04991336     0.36800
C1058       C  0.68998528  0.15957342  0.15586577     0.36800
N1059       N  0.60904231  0.28109209  0.04855854    -0.38000
N1060       N  0.70502422  0.15516179  0.18689480    -0.38000
N1061       N  0.56411358  0.16134139  0.01960622    -0.37400
N1062       N  0.77849497  0.17284505  0.09676867    -0.37400
C1063       C  0.64016992  0.16121744  0.92068980    -0.04100
C1064       C  0.68332653  0.16073319  0.92180317    -0.01200
C1065       C  0.70313603  0.18046449  0.95273756     0.03800
C1066       C  0.68497891  0.21415950  0.96980328    -0.04100
C1067       C  0.64493347  0.22282653  0.96025763    -0.01200
C1068       C  0.62105949  0.19292919  0.94305461     0.03800
C1069       C  0.70850180  0.15114305  0.88728489     0.38400
C1070       C  0.63037933  0.26369922  0.96164580     0.38400
C1071       C  0.57817488  0.20056323  0.94157296     0.36800
C1072       C  0.74350282  0.16843712  0.96369299     0.36800
N1073       N  0.54416487  0.20770967  0.94041469    -0.38000
N1074       N  0.77525306  0.15794973  0.97307535    -0.38000
N1075       N  0.61891633  0.29639701  0.96143934    -0.37400
N1076       N  0.72943949  0.14457825  0.86010385    -0.37400
C1077       C  0.84161215  0.37071095  0.09667522    -0.04100
C1078       C  0.85481149  0.34733880  0.06353131    -0.01200
C1079       C  0.83426990  0.31329656  0.05221107     0.03800
C1080       C  0.79326109  0.31117168  0.06028395    -0.04100
C1081       C  0.77564535  0.33881937  0.08699733    -0.01200
C1082       C  0.79894148  0.36938682  0.10383071     0.03800
C1083       C  0.87581623  0.36632142  0.03078269     0.38400
C1084       C  0.73268955  0.33739320  0.09545631     0.38400
C1085       C  0.77559249  0.40176346  0.12095660     0.36800
C1086       C  0.85509232  0.28249547  0.02954716     0.36800
N1087       N  0.75297829  0.42493711  0.13365945    -0.38000
N1088       N  0.87239522  0.25784294  0.01216864    -0.38000
N1089       N  0.69864565  0.33626134  0.10231030    -0.37400
N1090       N  0.89135716  0.38171060  0.00383690    -0.37400
C1091       C  0.84077825  0.36358885  0.91498543    -0.04100
C1092       C  0.83552765  0.32126086  0.90937330    -0.01200
C1093       C  0.81555009  0.29782600  0.93832786     0.03800
C1094       C  0.79174666  0.31565416  0.96845366    -0.04100
C1095       C  0.79059234  0.35756835  0.97078900    -0.01200
C1096       C  0.81533477  0.38130289  0.94539940     0.03800
C1097       C  0.84215633  0.30150236  0.87097431     0.38400
C1098       C  0.76153681  0.37673883  0.99728915     0.38400
C1099       C  0.80836952  0.42399729  0.94693098     0.36800
C1100       C  0.81817686  0.25462214  0.93541492     0.36800
N1101       N  0.80079390  0.45771500  0.94881480    -0.38000
N1102       N  0.82125318  0.22039114  0.93229404    -0.38000
N1103       N  0.73831844  0.39274796  0.01779572    -0.37400
N1104       N  0.84620668  0.28410250  0.84115862    -0.37400
C1105       C  0.14162959  0.65202699  0.09904971    -0.04100
C1106       C  0.18421812  0.65410121  0.10738585    -0.01200
C1107       C  0.20987804  0.67741916  0.08318540     0.03800
C1108       C  0.19389416  0.70601007  0.05684446    -0.04100
C1109       C  0.15217698  0.71012245  0.05394685    -0.01200
C1110       C  0.12653027  0.68131912  0.07098015     0.03800
C1111       C  0.20220749  0.64033954  0.14471673     0.38400
C1112       C  0.13529414  0.74717765  0.03859229     0.38400
C1113       C  0.08398504  0.68774635  0.06422595     0.36800
C1114       C  0.25310587  0.67421842  0.08799269     0.36800
N1115       N  0.05057546  0.69522203  0.05821345    -0.38000
N1116       N  0.28743344  0.67148597  0.09215564    -0.38000
N1117       N  0.12065760  0.77698487  0.02856205    -0.37400
N1118       N  0.21815799  0.63068361  0.17408110    -0.37400
C1119       C  0.19200401  0.70282267  0.96851472    -0.04100
C1120       C  0.16441365  0.72152978  0.94313575    -0.01200
C1121       C  0.14649726  0.69950149  0.91294463     0.03800
C1122       C  0.14164049  0.65703063  0.91745756    -0.04100
C1123       C  0.16659145  0.63823101  0.94756959    -0.01200
C1124       C  0.19417980  0.66105682  0.96971357     0.03800
C1125       C  0.15664394  0.76415279  0.94557303     0.38400
C1126       C  0.17068251  0.59533824  0.95140422     0.38400
C1127       C  0.22718654  0.64160393  0.99058015     0.36800
C1128       C  0.14418116  0.72057044  0.87469576     0.36800
N1129       N  0.25388200  0.62577544  0.00620987    -0.38000
N1130       N  0.14393198  0.73882807  0.84503872    -0.38000
N1131       N  0.17590812  0.56138823  0.95553141    -0.37400
N1132       N  0.14921193  0.79787060  0.94781323    -0.37400
C1133       C  0.29636300  0.81270327  0.04814355    -0.04100
C1134       C  0.33483387  0.80182096  0.06132084    -0.01200
C1135       C  0.36163860  0.83159337  0.07302793     0.03800
C1136       C  0.34640192  0.86953905  0.08604134    -0.04100
C1137       C  0.31035908  0.88171688  0.06651565    -0.01200
C1138       C  0.28430879  0.85291098  0.05032622     0.03800
C1139       C  0.34682497  0.76016394  0.06364781     0.38400
C1140       C  0.30860133  0.91986087  0.04654335     0.38400
C1141       C  0.24589191  0.86496441  0.03371466     0.36800
C1142       C  0.40437408  0.82291707  0.07093149     0.36800
N1143       N  0.21517831  0.87418992  0.02042719    -0.38000
N1144       N  0.43837012  0.81598673  0.06857517    -0.38000
N1145       N  0.30666406  0.94850369  0.02708310    -0.37400
N1146       N  0.35671675  0.72704414  0.06573280    -0.37400
C1147       C  0.29580189  0.80709664  0.95650870    -0.04100
C1148       C  0.33499678  0.81605093  0.96657441    -0.01200
C1149       C  0.35134254  0.85191468  0.95356117     0.03800
C1150       C  0.34129773  0.86801535  0.91523357    -0.04100
C1151       C  0.30606337  0.85090016  0.89773071    -0.01200
C1152       C  0.28104121  0.82509833  0.92079901     0.03800
C1153       C  0.36224409  0.78376696  0.97637469     0.38400
C1154       C  0.29224813  0.86077340  0.85775518     0.38400
C1155       C  0.24151888  0.81636571  0.90563951     0.36800
C1156       C  0.37529040  0.87194547  0.98243921     0.36800
N1157       N  0.21103408  0.81040436  0.89059031    -0.38000
N1158       N  0.39414310  0.88767699  0.00640648    -0.38000
N1159       N  0.27699852  0.86728662  0.82725106    -0.37400
N1160       N  0.38470140  0.75785818  0.98213264    -0.37400
C1161       C  0.17968625  0.45006293  0.21144237    -0.04100
C1162       C  0.13892519  0.45974524  0.20714318    -0.01200
C1163       C  0.11778179  0.44646476  0.17334450     0.03800
C1164       C  0.12971266  0.41069576  0.15282552    -0.04100
C1165       C  0.16716975  0.39368341  0.16672791    -0.01200
C1166       C  0.19393838  0.41660813  0.18997272     0.03800
C1167       C  0.11682426  0.47869065  0.23952643     0.38400
C1168       C  0.18132207  0.35398725  0.15700975     0.38400
C1169       C  0.23617702  0.40545169  0.19112150     0.36800
C1170       C  0.08874444  0.47450955  0.15802121     0.36800
N1171       N  0.26972913  0.39633719  0.19195349    -0.38000
N1172       N  0.06706134  0.49853670  0.14549967    -0.38000
N1173       N  0.19738674  0.32378195  0.15129851    -0.37400
N1174       N  0.09751303  0.49158888  0.26554212    -0.37400
C1175       C  0.13391252  0.59469642  0.15316531    -0.04100
C1176       C  0.16107327  0.56481536  0.13667379    -0.01200
C1177       C  0.18432247  0.53951801  0.16211907     0.03800
C1178       C  0.17945533  0.54056333  0.20409016    -0.04100
C1179       C  0.15192730  0.56781290  0.22070169    -0.01200
C1180       C  0.13349671  0.59728507  0.19660245     0.03800
C1181       C  0.17247097  0.56507443  0.09436994     0.38400
C1182       C  0.14345786  0.56715193  0.26363641     0.38400
C1183       C  0.12400375  0.63356996  0.21854008     0.36800
C1184       C  0.21655237  0.51501633  0.14556986     0.36800
N1185       N  0.11812515  0.66146221  0.23825093    -0.38000
N1186       N  0.24277335  0.49573634  0.13310995    -0.38000
N1187       N  0.13423002  0.56702620  0.29724585    -0.37400
N1188       N  0.18229625  0.56520319  0.06087382    -0.37400
C1189       C  0.13137463  0.15079956  0.58988685    -0.04100
C1190       C  0.11276315  0.18740170  0.57949237    -0.01200
C1191       C  0.13596578  0.21864058  0.56383895     0.03800
C1192       C  0.17278856  0.20990099  0.54476702    -0.04100
C1193       C  0.18514624  0.16957053  0.54194475    -0.01200
C1194       C  0.16429572  0.13970907  0.56397624     0.03800
C1195       C  0.06976172  0.19150815  0.58117715     0.38400
C1196       C  0.22141986  0.15942009  0.51966510     0.38400
C1197       C  0.17950488  0.09913909  0.56185645     0.36800
C1198       C  0.12281377  0.25952882  0.56965177     0.36800
N1199       N  0.19285165  0.06731245  0.55891413    -0.38000
N1200       N  0.11262097  0.29220832  0.57485611    -0.38000
N1201       N  0.25046574  0.15139030  0.50209875    -0.37400
N1202       N  0.03521434  0.19359815  0.58044951    -0.37400
C1203       C  0.12743920  0.15785204  0.41180464    -0.04100
C1204       C  0.10987622  0.17865688  0.44521846    -0.01200
C1205       C  0.12997085  0.21111281  0.46283988     0.03800
C1206       C  0.17122167  0.21719934  0.45569807    -0.04100
C1207       C  0.18897819  0.19707922  0.42258321    -0.01200
C1208       C  0.16544199  0.17255364  0.39790416     0.03800
C1209       C  0.06871878  0.17183100  0.45771322     0.38400
C1210       C  0.22970304  0.20490895  0.40970407     0.38400
C1211       C  0.17670237  0.17056659  0.35546499     0.36800
C1212       C  0.10602642  0.24359829  0.47915095     0.36800
N1213       N  0.18551040  0.16985574  0.32170222    -0.38000
N1214       N  0.08583375  0.26985616  0.48971873    -0.38000
N1215       N  0.26136954  0.21039754  0.39656181    -0.37400
N1216       N  0.03604566  0.16667114  0.46830814    -0.37400
C1217       C  0.52971195  0.20212134  0.20983361    -0.04100
C1218       C  0.52496620  0.16008832  0.20909202    -0.01200
C1219       C  0.54368307  0.13689103  0.17841618     0.03800
C1220       C  0.56983821  0.15536225  0.14982860    -0.04100
C1221       C  0.56554464  0.19737252  0.14602051    -0.01200
C1222       C  0.55226851  0.22016119  0.17884256     0.03800
C1223       C  0.50533228  0.14004761  0.24241401     0.38400
C1224       C  0.55204264  0.21374288  0.10819114     0.38400
C1225       C  0.55741902  0.26311597  0.17729153     0.36800
C1226       C  0.53846564  0.09396861  0.17838463     0.36800
N1227       N  0.56157055  0.29732449  0.17600434    -0.38000
N1228       N  0.53433774  0.05973947  0.17820843    -0.38000
N1229       N  0.53825345  0.22822448  0.07971355    -0.37400
N1230       N  0.49051562  0.12333847  0.26908735    -0.37400
C1231       C  0.39475071  0.15427641  0.15891170    -0.04100
C1232       C  0.38827585  0.15400386  0.20228505    -0.01200
C1233       C  0.41327033  0.17564567  0.22851349     0.03800
C1234       C  0.44007375  0.20381740  0.21330702    -0.04100
C1235       C  0.44123945  0.21074875  0.17186760    -0.01200
C1236       C  0.42244890  0.18443212  0.14495792     0.03800
C1237       C  0.35440622  0.13624247  0.22274460     0.38400
C1238       C  0.45922121  0.24733550  0.15689145     0.38400
C1239       C  0.43315350  0.19097466  0.10319956     0.36800
C1240       C  0.40960208  0.17077175  0.27203668     0.36800
N1241       N  0.44486297  0.19825511  0.07113105    -0.38000
N1242       N  0.40648469  0.16722333  0.30658171    -0.38000
N1243       N  0.47229153  0.27682050  0.14454517    -0.37400
N1244       N  0.32891825  0.12376585  0.24287211    -0.37400
C1245       C  0.02793976  0.30578639  0.19375441    -0.04100
C1246       C  0.05388622  0.29029585  0.16432248    -0.01200
C1247       C  0.08196228  0.31542382  0.14494701     0.03800
C1248       C  0.07605169  0.35828355  0.14397150    -0.04100
C1249       C  0.04526825  0.37254275  0.17090122    -0.01200
C1250       C  0.02774778  0.34712531  0.19978259     0.03800
C1251       C  0.05356028  0.24775119  0.15577064     0.38400
C1252       C  0.02643849  0.41132633  0.16721724     0.38400
C1253       C  0.01423532  0.36377894  0.23770961     0.36800
C1254       C  0.11689577  0.29444073  0.13005353     0.36800
N1255       N  0.00542315  0.37781559  0.26831965    -0.38000
N1256       N  0.14258347  0.27362683  0.11916631    -0.38000
N1257       N  0.00814045  0.44072423  0.16465255    -0.37400
N1258       N  0.05328939  0.21396649  0.14881198    -0.37400
C1259       C  0.93691709  0.20189004  0.29985832    -0.04100
C1260       C  0.92140905  0.21916666  0.33495970    -0.01200
C1261       C  0.89456078  0.19748448  0.35966027     0.03800
C1262       C  0.89359535  0.15430309  0.35801462    -0.04100
C1263       C  0.91390620  0.13742411  0.32337538    -0.01200
C1264       C  0.92859295  0.16198663  0.29220809     0.03800
C1265       C  0.93041272  0.26048598  0.34394211     0.38400
C1266       C  0.92244442  0.09531611  0.31867560     0.38400
C1267       C  0.93303774  0.14669021  0.25161799     0.36800
C1268       C  0.86479962  0.22243495  0.37928750     0.36800
N1269       N  0.93558234  0.13494253  0.21898624    -0.38000
N1270       N  0.84210885  0.24540605  0.39238604    -0.38000
N1271       N  0.93146064  0.06220492  0.31395374    -0.37400
N1272       N  0.93776181  0.29322567  0.35157662    -0.37400
C1273       C  0.93861510  0.30762295  0.19444080    -0.04100
C1274       C  0.92632123  0.34431463  0.21042127    -0.01200
C1275       C  0.91649298  0.37591164  0.18450348     0.03800
C1276       C  0.90544738  0.36816510  0.14380660    -0.04100
C1277       C  0.92251519  0.33233377  0.12720026    -0.01200
C1278       C  0.93681735  0.30165762  0.15274214     0.03800
C1279       C  0.92214070  0.34950944  0.25354833     0.38400
C1280       C  0.93634292  0.32995068  0.08594980     0.38400
C1281       C  0.94957215  0.26357561  0.13603015     0.36800
C1282       C  0.92121563  0.41604877  0.19975294     0.36800
N1283       N  0.95923357  0.23313760  0.12261754    -0.38000
N1284       N  0.92595386  0.44744024  0.21314548    -0.38000
N1285       N  0.94993044  0.32653085  0.05396903    -0.37400
N1286       N  0.91784648  0.35414594  0.28779634    -0.37400
C1287       C  0.02610535  0.20280963  0.30066298    -0.04100
C1288       C  0.04851747  0.22393362  0.32887354    -0.01200
C1289       C  0.07629811  0.20289914  0.35363953     0.03800
C1290       C  0.07344803  0.15937207  0.35838162    -0.04100
C1291       C  0.03899045  0.14420652  0.33973928    -0.01200
C1292       C  0.02741637  0.16123577  0.30313277     0.03800
C1293       C  0.04469391  0.26723965  0.33059024     0.38400
C1294       C  0.00546010  0.14284399  0.36701096     0.38400
C1295       C  0.02338525  0.13661249  0.26802687     0.36800
C1296       C  0.10635083  0.22876063  0.37011804     0.36800
N1297       N  0.02157000  0.11661407  0.23980536    -0.38000
N1298       N  0.12866160  0.25278085  0.38054998    -0.38000
N1299       N  0.97961258  0.14388542  0.39021538    -0.37400
N1300       N  0.04155469  0.30161739  0.33182561    -0.37400
C1301       C  0.28234184  0.96126943  0.20143305    -0.04100
C1302       C  0.31183501  0.93718558  0.21872156    -0.01200
C1303       C  0.33694750  0.91308596  0.19406071     0.03800
C1304       C  0.33907713  0.91916563  0.15012034    -0.04100
C1305       C  0.31006441  0.94826024  0.13598971    -0.01200
C1306       C  0.27749012  0.96004092  0.16002265     0.03800
C1307       C  0.31463029  0.93552499  0.26260161     0.38400
C1308       C  0.31878464  0.97947268  0.10752027     0.38400
C1309       C  0.24077090  0.97443585  0.14159259     0.36800
C1310       C  0.35772180  0.88302654  0.21769259     0.36800
N1311       N  0.21130289  0.98461705  0.12632861    -0.38000
N1312       N  0.37176194  0.86026052  0.23994592    -0.38000
N1313       N  0.32324422  0.00657751  0.08631969    -0.37400
N1314       N  0.31663396  0.93403001  0.29734177    -0.37400
C1315       C  0.18121922  0.06017259  0.30359422    -0.04100
C1316       C  0.19470283  0.07465983  0.34061458    -0.01200
C1317       C  0.16684844  0.08778784  0.36989441     0.03800
C1318       C  0.12733527  0.09983964  0.35823695    -0.04100
C1319       C  0.11277409  0.07983770  0.32324919    -0.01200
C1320       C  0.13983578  0.06174166  0.29554730     0.03800
C1321       C  0.23729892  0.07777732  0.34809548     0.38400
C1322       C  0.07126448  0.06837624  0.31967746     0.38400
C1323       C  0.12481279  0.04386869  0.25893950     0.36800
C1324       C  0.17894598  0.08707808  0.41175959     0.36800
N1325       N  0.11247391  0.02976230  0.22987821    -0.38000
N1326       N  0.18875167  0.08620262  0.44510076    -0.38000
N1327       N  0.03882113  0.05698028  0.31607911    -0.37400
N1328       N  0.27132167  0.08091000  0.35371708    -0.37400
C1329       C  0.28966205  0.04967014  0.19655621    -0.04100
C1330       C  0.33172885  0.04633187  0.20189100    -0.01200
C1331       C  0.35836323  0.06703077  0.17576498     0.03800
C1332       C  0.34283742  0.09496499  0.14726192    -0.04100
C1333       C  0.30262650  0.08818287  0.13544986    -0.01200
C1334       C  0.27545506  0.06944702  0.16194313     0.03800
C1335       C  0.34763129  0.02716822  0.23759412     0.38400
C1336       C  0.29087674  0.09423085  0.09414689     0.38400
C1337       C  0.23287500  0.07114567  0.15357765     0.36800
C1338       C  0.40130684  0.06266370  0.18122404     0.36800
N1339       N  0.19887588  0.07286462  0.14699068    -0.38000
N1340       N  0.43554751  0.05912649  0.18560018    -0.38000
N1341       N  0.28223716  0.09708368  0.06066986    -0.37400
N1342       N  0.36109904  0.01319041  0.26644277    -0.37400
C1343       C  0.18040158  0.97112161  0.30811747    -0.04100
C1344       C  0.15476035  0.94251867  0.29179380    -0.01200
C1345       C  0.14001478  0.91198324  0.31648065     0.03800
C1346       C  0.13667721  0.91750263  0.35930545    -0.04100
C1347       C  0.16165447  0.94808610  0.37565904    -0.01200
C1348       C  0.18665724  0.97084059  0.34997964     0.03800
C1349       C  0.14828182  0.94075498  0.24857643     0.38400
C1350       C  0.16913082  0.95112806  0.41848309     0.38400
C1351       C  0.22360120  0.98653290  0.36600687     0.36800
C1352       C  0.13678213  0.87326124  0.29730442     0.36800
N1353       N  0.25358657  0.99653157  0.37983980    -0.38000
N1354       N  0.13506159  0.84301885  0.28074180    -0.38000
N1355       N  0.17684669  0.95414456  0.45224073    -0.37400
N1356       N  0.14359780  0.93901034  0.21415301    -0.37400
C1357       C  0.14319914  0.36470976  0.90914896    -0.04100
C1358       C  0.15130877  0.32332867  0.90034924    -0.01200
C1359       C  0.17207644  0.29926251  0.92811650     0.03800
C1360       C  0.19666719  0.31721057  0.95659740    -0.04100
C1361       C  0.20076573  0.35856636  0.95547061    -0.01200
C1362       C  0.17148897  0.38231175  0.93640304     0.03800
C1363       C  0.14334267  0.30438651  0.86226132     0.38400
C1364       C  0.23731246  0.37633039  0.97036129     0.38400
C1365       C  0.17279051  0.42400995  0.94691039     0.36800
C1366       C  0.16967100  0.25604785  0.92561463     0.36800
N1367       N  0.17586696  0.45638036  0.95842703    -0.38000
N1368       N  0.16770638  0.22169164  0.92331998    -0.38000
N1369       N  0.26698936  0.39060818  0.98050987    -0.37400
N1370       N  0.13894552  0.28531931  0.83370695    -0.37400
C1371       C  0.30004700  0.22495150  0.06377759    -0.04100
C1372       C  0.28455313  0.20684645  0.09904388    -0.01200
C1373       C  0.30880384  0.18007856  0.12191965     0.03800
C1374       C  0.34345967  0.16088459  0.10392157    -0.04100
C1375       C  0.35473501  0.17720613  0.06570750    -0.01200
C1376       C  0.33920460  0.21409588  0.05286005     0.03800
C1377       C  0.24346943  0.21412729  0.11183862     0.38400
C1378       C  0.37789903  0.15618648  0.03593773     0.38400
C1379       C  0.36419786  0.24073715  0.02938412     0.36800
C1380       C  0.29413276  0.17118460  0.16197038     0.36800
N1381       N  0.38489682  0.26195311  0.01143805    -0.38000
N1382       N  0.27804486  0.16624532  0.19252125    -0.38000
N1383       N  0.39575857  0.14111707  0.01024076    -0.37400
N1384       N  0.21086074  0.21924284  0.12284985    -0.37400
C1385       C  0.18816345  0.32535212  0.04442714    -0.04100
C1386       C  0.14705549  0.31587495  0.04069879    -0.01200
C1387       C  0.11756503  0.34037681  0.05926813     0.03800
C1388       C  0.13001660  0.37138716  0.08530714    -0.04100
C1389       C  0.16835135  0.38725965  0.07642143    -0.01200
C1390       C  0.19858807  0.36210636  0.06139399     0.03800
C1391       C  0.13545551  0.27800865  0.02353634     0.38400
C1392       C  0.17591741  0.42951294  0.07937730     0.38400
C1393       C  0.24014383  0.37310759  0.06640276     0.36800
C1394       C  0.07558313  0.33055963  0.05489639     0.36800
N1395       N  0.27321448  0.38181610  0.07138968    -0.38000
N1396       N  0.04226719  0.32202337  0.05137506    -0.38000
N1397       N  0.18129170  0.46350553  0.07967375    -0.37400
N1398       N  0.12591551  0.24746527  0.01088097    -0.37400
C1399       C  0.30279204  0.21784020  0.97108691    -0.04100
C1400       C  0.32728559  0.23355614  0.94051651    -0.01200
C1401       C  0.34493240  0.20810497  0.91200490     0.03800
C1402       C  0.34858604  0.16582295  0.91973350    -0.04100
C1403       C  0.32388165  0.15059113  0.95211305    -0.01200
C1404       C  0.29876274  0.17653261  0.97465777     0.03800
C1405       C  0.33083262  0.27667330  0.93571614     0.38400
C1406       C  0.31787602  0.10829217  0.95859235     0.38400
C1407       C  0.26483773  0.16143370  0.99750967     0.36800
C1408       C  0.35185794  0.22663979  0.87299818     0.36800
N1409       N  0.23647368  0.15107029  0.01469307    -0.38000
N1410       N  0.35639687  0.24365138  0.84292639    -0.38000
N1411       N  0.31112439  0.07498800  0.96463869    -0.37400
N1412       N  0.33322999  0.31085051  0.93150773    -0.37400
C1413       C  0.58124332  0.65807220  0.65088713    -0.04100
C1414       C  0.59738824  0.67961090  0.68443888    -0.01200
C1415       C  0.57142557  0.69725898  0.71362067     0.03800
C1416       C  0.53162807  0.70794150  0.70330559    -0.04100
C1417       C  0.51852745  0.69442049  0.66579716    -0.01200
C1418       C  0.53889751  0.66252044  0.64687346     0.03800
C1419       C  0.63958198  0.68331980  0.69243971     0.38400
C1420       C  0.49229093  0.71961676  0.64235032     0.38400
C1421       C  0.51524849  0.62797134  0.63900492     0.36800
C1422       C  0.58602369  0.70302977  0.75426284     0.36800
N1423       N  0.49926240  0.59839297  0.63214123    -0.38000
N1424       N  0.59786074  0.70749632  0.78656726    -0.38000
N1425       N  0.47282753  0.74204829  0.62432052    -0.37400
N1426       N  0.67164052  0.69004456  0.70339114    -0.37400
C1427       C  0.68817794  0.55671600  0.69763110    -0.04100
C1428       C  0.69211219  0.55417494  0.65532702    -0.01200
C1429       C  0.66431307  0.57407564  0.62981640     0.03800
C1430       C  0.63215919  0.59771251  0.64681152    -0.04100
C1431       C  0.62413401  0.59088949  0.68844075    -0.01200
C1432       C  0.65438206  0.57624332  0.71395849     0.03800
C1433       C  0.72811962  0.53630122  0.63810221     0.38400
C1434       C  0.58365782  0.59202698  0.70440588     0.38400
C1435       C  0.64997723  0.58052493  0.75721679     0.36800
C1436       C  0.67332914  0.57473741  0.58692272     0.36800
N1437       N  0.64657425  0.58412122  0.79170355    -0.38000
N1438       N  0.68107372  0.57526566  0.55291242    -0.38000
N1439       N  0.55159112  0.59170778  0.71785627    -0.37400
N1440       N  0.75709630  0.52299638  0.62400696    -0.37400
C1441       C  0.68738868  0.71114781  0.54907758    -0.04100
C1442       C  0.64562631  0.71665565  0.54949257    -0.01200
C1443       C  0.62070102  0.69092038  0.57222498     0.03800
C1444       C  0.63729450  0.66106419  0.59876503    -0.04100
C1445       C  0.68044971  0.66238188  0.60325849    -0.01200
C1446       C  0.70456576  0.68346274  0.57568246     0.03800
C1447       C  0.62826194  0.75068964  0.52844365     0.38400
C1448       C  0.70246711  0.64694159  0.63751919     0.38400
C1449       C  0.74799522  0.67771277  0.57601910     0.36800
C1450       C  0.57795747  0.69804789  0.56877432     0.36800
N1451       N  0.78243272  0.67312481  0.57650764    -0.38000
N1452       N  0.54431323  0.70538048  0.56412268    -0.38000
N1453       N  0.72296972  0.63630235  0.66351843    -0.37400
N1454       N  0.61410229  0.77808104  0.51247685    -0.37400
C1455       C  0.45044647  0.30467990  0.69393545    -0.04100
C1456       C  0.44502670  0.29804925  0.65245235    -0.01200
C1457       C  0.42274650  0.32581045  0.62882770     0.03800
C1458       C  0.39653882  0.35444139  0.64797598    -0.04100
C1459       C  0.39430049  0.35072196  0.69113794    -0.01200
C1460       C  0.42596068  0.33335028  0.71270208     0.03800
C1461       C  0.45619223  0.25967170  0.63566944     0.38400
C1462       C  0.35683124  0.35423626  0.71344673     0.38400
C1463       C  0.42982574  0.34156505  0.75538186     0.36800
C1464       C  0.42199814  0.31949684  0.58571619     0.36800
N1465       N  0.43278313  0.34840221  0.78933522    -0.38000
N1466       N  0.42155262  0.31378698  0.55141064    -0.38000
N1467       N  0.32762156  0.35581187  0.73243849    -0.37400
N1468       N  0.46362896  0.22851830  0.62255827    -0.37400
C1469       C  0.34553796  0.41304674  0.65436967    -0.04100
C1470       C  0.36675490  0.43636268  0.68345063    -0.01200
C1471       C  0.34538797  0.45380685  0.71621482     0.03800
C1472       C  0.30416202  0.46223969  0.71240056    -0.04100
C1473       C  0.28394891  0.44468206  0.68046913    -0.01200
C1474       C  0.30268192  0.41327372  0.65986864     0.03800
C1475       C  0.41011266  0.43739223  0.68487807     0.38400
C1476       C  0.24292244  0.45569470  0.67121100     0.38400
C1477       C  0.27856040  0.37769338  0.65657824     0.36800
C1478       C  0.36432185  0.45723627  0.75512607     0.36800
N1479       N  0.25878547  0.34956290  0.65522938    -0.38000
N1480       N  0.37926504  0.45866930  0.78641105    -0.38000
N1481       N  0.21044148  0.46499115  0.66314978    -0.37400
N1482       N  0.44450228  0.43960691  0.68825125    -0.37400
C1483       C  0.33655090  0.36060049  0.59673924    -0.04100
C1484       C  0.33177860  0.31773483  0.59831151    -0.01200
C1485       C  0.30728355  0.29794608  0.57038808     0.03800
C1486       C  0.27553861  0.31857502  0.55204502    -0.04100
C1487       C  0.27270800  0.35992104  0.55863316    -0.01200
C1488       C  0.30577235  0.38126659  0.57425608     0.03800
C1489       C  0.34203048  0.29373857  0.63322563     0.38400
C1490       C  0.23357354  0.37900699  0.55710892     0.38400
C1491       C  0.30247375  0.42452261  0.57364086     0.36800
C1492       C  0.31227086  0.25537251  0.56410122     0.36800
N1493       N  0.29860773  0.45888220  0.57301216    -0.38000
N1494       N  0.31654251  0.22147037  0.55902246    -0.38000
N1495       N  0.20227332  0.39422647  0.55760021    -0.37400
N1496       N  0.34872108  0.27344838  0.66070019    -0.37400
C1497       C  0.68681443  0.47371847  0.30902150    -0.04100
C1498       C  0.65386113  0.45437334  0.29216222    -0.01200
C1499       C  0.63429046  0.42364446  0.31399086     0.03800
C1500       C  0.63763333  0.42091695  0.35733995    -0.04100
C1501       C  0.66891563  0.44495184  0.37434395    -0.01200
C1502       C  0.69690076  0.46406202  0.34881534     0.03800
C1503       C  0.64354155  0.46236021  0.25048790     0.38400
C1504       C  0.67811673  0.44464464  0.41700426     0.38400
C1505       C  0.73826169  0.46803687  0.36150785     0.36800
C1506       C  0.61998360  0.39132868  0.28931372     0.36800
N1507       N  0.77144273  0.47043525  0.37107595    -0.38000
N1508       N  0.61024482  0.36588879  0.26815905    -0.38000
N1509       N  0.68610987  0.44464147  0.45084715    -0.37400
N1510       N  0.63540310  0.46879941  0.21727442    -0.37400
C1511       C  0.64276117  0.36297879  0.41118145    -0.04100
C1512       C  0.62716420  0.33605036  0.44116621    -0.01200
C1513       C  0.65258184  0.30834833  0.46099178     0.03800
C1514       C  0.69445633  0.31082816  0.45724119    -0.04100
C1515       C  0.71052879  0.33609576  0.42746839    -0.01200
C1516       C  0.68485028  0.35768089  0.40159955     0.03800
C1517       C  0.58446602  0.33096229  0.44757884     0.38400
C1518       C  0.75370009  0.33832030  0.42157042     0.38400
C1519       C  0.70112258  0.36556920  0.36166039     0.36800
C1520       C  0.63542704  0.27412704  0.48151428     0.36800
N1521       N  0.71468978  0.37049473  0.32987904    -0.38000
N1522       N  0.62144192  0.24636128  0.49663185    -0.38000
N1523       N  0.78803406  0.34025320  0.41676719    -0.37400
N1524       N  0.55080976  0.32474648  0.45328256    -0.37400
C1525       C  0.58487536  0.36173543  0.36005348    -0.04100
C1526       C  0.59320570  0.31972877  0.35362112    -0.01200
C1527       C  0.56429382  0.29457390  0.33699963     0.03800
C1528       C  0.53276544  0.31058462  0.31417824    -0.04100
C1529       C  0.52705939  0.35243417  0.31426714    -0.01200
C1530       C  0.54987822  0.37707406  0.34009865     0.03800
C1531       C  0.63241269  0.30097444  0.35735201     0.38400
C1532       C  0.50086618  0.37084282  0.28479956     0.38400
C1533       C  0.53953119  0.41914957  0.34173021     0.36800
C1534       C  0.56834114  0.25153660  0.34220169     0.36800
N1535       N  0.53041649  0.45250964  0.34284730    -0.38000
N1536       N  0.57154711  0.21739536  0.34660322    -0.38000
N1537       N  0.48087185  0.38599776  0.26075812    -0.37400
N1538       N  0.66237499  0.28329289  0.35901935    -0.37400
C1539       C  0.43204632  0.70079412  0.29836589    -0.04100
C1540       C  0.44069385  0.65996285  0.30242586    -0.01200
C1541       C  0.42616697  0.63867435  0.33591207     0.03800
C1542       C  0.38991560  0.65114274  0.35611340    -0.04100
C1543       C  0.37455687  0.68957083  0.34304451    -0.01200
C1544       C  0.39890381  0.71580018  0.32019986     0.03800
C1545       C  0.46149214  0.63839541  0.27078065     0.38400
C1546       C  0.33527061  0.70532644  0.35317229     0.38400
C1547       C  0.38934154  0.75824471  0.31952210     0.36800
C1548       C  0.45398082  0.60915267  0.35137603     0.36800
N1549       N  0.38137129  0.79192183  0.31901694    -0.38000
N1550       N  0.47849194  0.58734511  0.36297468    -0.38000
N1551       N  0.30576606  0.72253935  0.35997626    -0.37400
N1552       N  0.47649227  0.61985328  0.24542104    -0.37400
C1553       C  0.29077886  0.69947380  0.46276983    -0.04100
C1554       C  0.28034786  0.65926217  0.45761643    -0.01200
C1555       C  0.30794415  0.63230129  0.43985347     0.03800
C1556       C  0.34269974  0.64715654  0.41984776    -0.04100
C1557       C  0.35679520  0.68440963  0.43429515    -0.01200
C1558       C  0.32965800  0.71169836  0.45196181     0.03800
C1559       C  0.23963050  0.64662037  0.46572349     0.38400
C1560       C  0.39867433  0.69528493  0.43118702     0.38400
C1561       C  0.34091638  0.75313833  0.45551051     0.36800
C1562       C  0.29859530  0.59022736  0.44019041     0.36800
N1563       N  0.35055547  0.78611988  0.45729977    -0.38000
N1564       N  0.29020304  0.55686163  0.44041226    -0.38000
N1565       N  0.43207015  0.70415469  0.42941274    -0.37400
N1566       N  0.20693221  0.63642246  0.47078852    -0.37400
C1567       C  0.33819058  0.59647090  0.35813529    -0.04100
C1568       C  0.35522675  0.56620156  0.33257107    -0.01200
C1569       C  0.33283727  0.54945645  0.30096320     0.03800
C1570       C  0.29081313  0.54875618  0.30342364    -0.04100
C1571       C  0.27270352  0.57414280  0.33173868    -0.01200
C1572       C  0.29571100  0.60293951  0.35190759     0.03800
C1573       C  0.39280941  0.54640684  0.34092988     0.38400
C1574       C  0.23042897  0.57069264  0.34120814     0.38400
C1575       C  0.27322423  0.63838133  0.36284200     0.36800
C1576       C  0.35331639  0.53879125  0.26403651     0.36800
N1577       N  0.25114298  0.66423657  0.37022695    -0.38000
N1578       N  0.37044453  0.53255497  0.23427170    -0.38000
N1579       N  0.19725141  0.56802829  0.35099202    -0.37400
N1580       N  0.42139207  0.52766601  0.34732529    -0.37400
C1581       C  0.63138188  0.66329798  0.41118295    -0.04100
C1582       C  0.63270765  0.70636078  0.40591579    -0.01200
C1583       C  0.65681693  0.73064015  0.43083341     0.03800
C1584       C  0.68449001  0.71361504  0.45772354    -0.04100
C1585       C  0.68823404  0.67207620  0.45910193    -0.01200
C1586       C  0.66066629  0.64741858  0.43902883     0.03800
C1587       C  0.61288125  0.72821558  0.37389518     0.38400
C1588       C  0.72305438  0.65428776  0.47856054     0.38400
C1589       C  0.66488391  0.60539405  0.44817749     0.36800
C1590       C  0.65452580  0.77397035  0.42732877     0.36800
N1591       N  0.67030879  0.57270114  0.45828844    -0.38000
N1592       N  0.65301776  0.80835346  0.42425456    -0.38000
N1593       N  0.75103349  0.63943859  0.49282288    -0.37400
N1594       N  0.59851779  0.74845552  0.34947905    -0.37400
C1595       C  0.57089027  0.65344178  0.35805666    -0.04100
C1596       C  0.56636087  0.64339192  0.31643729    -0.01200
C1597       C  0.54773832  0.67009931  0.28958011     0.03800
C1598       C  0.52283311  0.70087405  0.30413434    -0.04100
C1599       C  0.51903048  0.70609474  0.34611860    -0.01200
C1600       C  0.54273740  0.68287817  0.37309183     0.03800
C1601       C  0.57595281  0.60427449  0.30040681     0.38400
C1602       C  0.49452455  0.73883980  0.36129805     0.38400
C1603       C  0.54145892  0.69388917  0.41541503     0.36800
C1604       C  0.55347498  0.66492283  0.24646021     0.36800
N1605       N  0.54051677  0.70320182  0.44893388    -0.38000
N1606       N  0.55813162  0.66100833  0.21214556    -0.38000
N1607       N  0.47532979  0.76522375  0.37331483    -0.37400
N1608       N  0.58244594  0.57387883  0.28518184    -0.37400
C1609       C  0.63629737  0.60947491  0.35899571    -0.04100
C1610       C  0.64525970  0.56821172  0.36444936    -0.01200
C1611       C  0.68242219  0.55377264  0.35110177     0.03800
C1612       C  0.69524204  0.56547176  0.31286530    -0.04100
C1613       C  0.68307283  0.60443580  0.30070307    -0.01200
C1614       C  0.65866823  0.62812779  0.32689338     0.03800
C1615       C  0.61358386  0.53944207  0.36142260     0.38400
C1616       C  0.69473591  0.62119581  0.26212430     0.38400
C1617       C  0.65462335  0.66984867  0.31641217     0.36800
C1618       C  0.71347667  0.55093772  0.38089446     0.36800
N1619       N  0.65428299  0.70206137  0.30380441    -0.38000
N1620       N  0.73872311  0.54966867  0.40460106    -0.38000
N1621       N  0.70315243  0.63710443  0.23233466    -0.37400
N1622       N  0.58818784  0.51642151  0.35858714    -0.37400
C1623       C  0.34298086  0.42127096  0.36759140    -0.04100
C1624       C  0.30520123  0.43846781  0.37926184    -0.01200
C1625       C  0.27888463  0.45399212  0.35004511     0.03800
C1626       C  0.29226613  0.45985848  0.31038785    -0.04100
C1627       C  0.33239833  0.45032618  0.30058006    -0.01200
C1628       C  0.35878019  0.43662807  0.33082519     0.03800
C1629       C  0.29920268  0.45520208  0.41886737     0.38400
C1630       C  0.34510371  0.44885642  0.25886839     0.38400
C1631       C  0.40165546  0.43799251  0.32385763     0.36800
C1632       C  0.23819810  0.46534078  0.36140378     0.36800
N1633       N  0.43595550  0.43963890  0.31888847    -0.38000
N1634       N  0.20570328  0.47400989  0.37044643    -0.38000
N1635       N  0.35517400  0.44646171  0.22555049    -0.37400
N1636       N  0.29326797  0.47059167  0.44949337    -0.37400
C1637       C  0.33784722  0.36188856  0.41981174    -0.04100
C1638       C  0.33059223  0.31925331  0.41539038    -0.01200
C1639       C  0.30542616  0.29959189  0.44330137     0.03800
C1640       C  0.27547271  0.32150227  0.46329034    -0.04100
C1641       C  0.27872848  0.36292429  0.46297403    -0.01200
C1642       C  0.31527469  0.37937863  0.45125663     0.03800
C1643       C  0.34504897  0.29359815  0.38333728     0.38400
C1644       C  0.24438249  0.38881319  0.46849634     0.38400
C1645       C  0.33583281  0.40121222  0.48154561     0.36800
C1646       C  0.31153362  0.25765131  0.45258593     0.36800
N1647       N  0.35371029  0.41820552  0.50544236    -0.38000
N1648       N  0.31734254  0.22457437  0.46097921    -0.38000
N1649       N  0.21697926  0.41011981  0.47116246    -0.37400
N1650       N  0.35521034  0.27109877  0.35885067    -0.37400
C1651       C  0.44164922  0.30899756  0.31720109    -0.04100
C1652       C  0.40991308  0.33162746  0.30056623    -0.01200
C1653       C  0.38284943  0.35173106  0.32588089     0.03800
C1654       C  0.39310844  0.35979246  0.36670491    -0.04100
C1655       C  0.42266905  0.33346675  0.38400052    -0.01200
C1656       C  0.44605633  0.30793770  0.35933433     0.03800
C1657       C  0.40368743  0.33318351  0.25734514     0.38400
C1658       C  0.42303531  0.32542415  0.42705501     0.38400
C1659       C  0.47111065  0.27739794  0.37784488     0.36800
C1660       C  0.34161395  0.35505997  0.31216637     0.36800
N1661       N  0.49013825  0.25288115  0.39347127    -0.38000
N1662       N  0.30874231  0.35671905  0.30128280    -0.38000
N1663       N  0.42312502  0.31838082  0.46117256    -0.37400
N1664       N  0.39878001  0.33460550  0.22292226    -0.37400
C1665       C  0.64150830  0.41973096  0.64760949    -0.04100
C1666       C  0.68414549  0.41264966  0.65194656    -0.01200
C1667       C  0.70840468  0.44058727  0.67140307     0.03800
C1668       C  0.69107449  0.46848674  0.69782378    -0.04100
C1669       C  0.64884273  0.47139747  0.69970677    -0.01200
C1670       C  0.62494029  0.45163056  0.67110909     0.03800
C1671       C  0.70428922  0.37508063  0.64313150     0.38400
C1672       C  0.62951684  0.48839738  0.73491842     0.38400
C1673       C  0.58231693  0.46086180  0.67043467     0.36800
C1674       C  0.75174515  0.43868422  0.66601145     0.36800
N1675       N  0.54845622  0.46874459  0.66995430    -0.38000
N1676       N  0.78615690  0.43714351  0.66140917    -0.38000
N1677       N  0.61315660  0.49991564  0.76348026    -0.37400
N1678       N  0.72244611  0.34602637  0.63728486    -0.37400
C1679       C  0.58356685  0.36832888  0.65268068    -0.04100
C1680       C  0.55120382  0.34690751  0.63625790    -0.01200
C1681       C  0.54232890  0.31016634  0.65393953     0.03800
C1682       C  0.54005205  0.30863298  0.69618168    -0.04100
C1683       C  0.55882154  0.33993641  0.71692527    -0.01200
C1684       C  0.58657747  0.36447373  0.69600184     0.03800
C1685       C  0.51537822  0.37103559  0.63449128     0.38400
C1686       C  0.54710615  0.34942701  0.75774505     0.38400
C1687       C  0.62006964  0.37789530  0.71951831     0.36800
C1688       C  0.54501605  0.27489298  0.62947061     0.36800
N1689       N  0.64664610  0.38689443  0.73965225    -0.38000
N1690       N  0.54883580  0.24730067  0.60892829    -0.38000
N1691       N  0.53595559  0.35871483  0.78943117    -0.37400
N1692       N  0.48766187  0.39185043  0.63461470    -0.37400
C1693       C  0.63792238  0.36298735  0.59516427    -0.04100
C1694       C  0.64190380  0.32089643  0.60270978    -0.01200
C1695       C  0.66341291  0.29617399  0.57592222     0.03800
C1696       C  0.68993702  0.31286683  0.54752740    -0.04100
C1697       C  0.69092819  0.35452091  0.54289621    -0.01200
C1698       C  0.66359493  0.37919964  0.56416601     0.03800
C1699       C  0.63576793  0.30358752  0.64233132     0.38400
C1700       C  0.72303903  0.37258335  0.51952784     0.38400
C1701       C  0.66860016  0.42190729  0.55883524     0.36800
C1702       C  0.66084214  0.25306164  0.58029302     0.36800
N1703       N  0.67464350  0.45557522  0.55423247    -0.38000
N1704       N  0.65870392  0.21879487  0.58383394    -0.38000
N1705       N  0.74869379  0.38767268  0.50168220    -0.37400
N1706       N  0.63318446  0.28826532  0.67352466    -0.37400
C1707       C  0.43814520  0.70014968  0.71092660    -0.04100
C1708       C  0.40729658  0.71629994  0.68724571    -0.01200
C1709       C  0.38292503  0.69154295  0.66347089     0.03800
C1710       C  0.39318341  0.65018991  0.65637011    -0.04100
C1711       C  0.42301980  0.63425063  0.68386679    -0.01200
C1712       C  0.44318799  0.65887480  0.71183535     0.03800
C1713       C  0.39991100  0.75915553  0.68749246     0.38400
C1714       C  0.43485845  0.59288194  0.68634953     0.38400
C1715       C  0.46843312  0.64180888  0.74320297     0.36800
C1716       C  0.34608021  0.71055176  0.65052799     0.36800
N1717       N  0.48788485  0.62868838  0.76883697    -0.38000
N1718       N  0.31868971  0.73012006  0.64177118    -0.38000
N1719       N  0.44865591  0.56164941  0.69266039    -0.37400
N1720       N  0.39290945  0.79299561  0.68701228    -0.37400
C1721       C  0.34662875  0.64669126  0.59088958    -0.04100
C1722       C  0.36223037  0.68161490  0.57217817    -0.01200
C1723       C  0.33575070  0.70982417  0.55495429     0.03800
C1724       C  0.29514929  0.70019942  0.54959374    -0.04100
C1725       C  0.28225308  0.66149180  0.55927523    -0.01200
C1726       C  0.30960060  0.63340507  0.57496554     0.03800
C1727       C  0.40476465  0.68908467  0.56993237     0.38400
C1728       C  0.23998695  0.65199258  0.55862105     0.38400
C1729       C  0.29930232  0.59149483  0.57400047     0.36800
C1730       C  0.34914382  0.75037224  0.54871559     0.36800
N1731       N  0.29099785  0.55810530  0.57253965    -0.38000
N1732       N  0.36009824  0.78285830  0.54537334    -0.38000
N1733       N  0.20623483  0.64438471  0.55969098    -0.37400
N1734       N  0.43862865  0.69480630  0.56541471    -0.37400
C1735       C  0.34102845  0.59614710  0.65110752    -0.04100
C1736       C  0.35538154  0.56052009  0.67008767    -0.01200
C1737       C  0.33729006  0.54749402  0.70530647     0.03800
C1738       C  0.29592425  0.55120227  0.70891312    -0.04100
C1739       C  0.27682699  0.58034578  0.68503473    -0.01200
C1740       C  0.30075766  0.60761631  0.66326446     0.03800
C1741       C  0.38310157  0.53241951  0.65216905     0.38400
C1742       C  0.23334866  0.58377160  0.68407327     0.38400
C1743       C  0.28168095  0.64567789  0.65549271     0.36800
C1744       C  0.36154237  0.54526421  0.74103594     0.36800
N1745       N  0.26196850  0.67392523  0.65103161    -0.38000
N1746       N  0.38113229  0.54563877  0.76963205    -0.38000
N1747       N  0.19875815  0.58671099  0.68323926    -0.37400
N1748       N  0.40582773  0.51025568  0.63787555    -0.37400
loop_ 
_geom_bond_atom_site_label_1 
_geom_bond_atom_site_label_2 
_geom_bond_distance 
_geom_bond_site_symmetry_2 
_ccdc_geom_bond_type 
C1           C10   1.546       .  S
C1         C1710   1.609       .  S
C1         C1721   1.575       .  S
C1         C1735   1.586       .  S
N2            N3   1.318       .  A
N2            N8   1.317       .  A
N2          Mn31   2.223       .  S
N3           C10   1.358       .  A
N4            N6   1.316       .  A
N4            N5   1.325       .  A
N4          Mn20   2.248       .  S
N5           C11   1.362       .  A
N6            N7   1.328       .  A
N6          Mn31   2.225       .  S
N7           C11   1.359       .  A
N8            N9   1.327       .  A
N8          Mn20   2.234       .  S
N9           C10   1.359       .  A
C11          C50   1.557       .  S
N12          N18   1.316       .  A
N12          N13   1.322       .  A
N12         Mn42   2.257       .  S
N13          C21   1.361       .  A
N14          N15   1.326       .  A
N14          N16   1.314       .  A
N14         Mn20   2.238       .  S
N15          C22   1.362       .  A
N16          N17   1.325       .  A
N16         Mn42   2.238       .  S
N17          C22   1.363       .  A
N18          N19   1.322       .  A
N18         Mn20   2.201       .  S
N19          C21   1.356       .  A
Mn20        Cl44   2.587       .  S
C21          C49   1.581       .  S
C22          C53   1.592       .  S
N23          N24   1.323       .  A
N23          N29   1.315       .  A
N23         Mn31   2.214       .  S
N24          C32   1.358       .  A
N25          N27   1.320       .  A
N25          N26   1.333       .  A
N25         Mn43   2.293       .  S
N26          C33   1.367       .  A
N27          N28   1.336       .  A
N27         Mn31   2.277       .  S
N28          C33   1.365       .  A
N29          N30   1.323       .  A
N29         Mn43   2.231       .  S
N30          C32   1.358       .  A
Mn31        Cl44   2.565       .  S
C32          C48   1.565       .  S
C33          C52   1.605       .  S
N34          N35   1.329       .  A
N34          N40   1.317       .  A
N34         Mn42   2.238       .  S
N35          C45   1.362       .  A
N36          N37   1.329       .  A
N36          N38   1.319       .  A
N36         Mn43   2.247       .  S
N37          C46   1.362       .  A
N38          N39   1.329       .  A
N38         Mn42   2.270       .  S
N39          C46   1.364       .  A
N40          N41   1.322       .  A
N40         Mn43   2.247       .  S
N41          C45   1.359       .  A
Mn42        Cl44   2.554       .  S
Mn43        Cl44   2.588       .  S
C45          C47   1.578       .  S
C46          C51   1.590       .  S
C47        C1665   1.583       .  S
C47        C1679   1.594       .  S
C47        C1693   1.577       .  S
C48        C1623   1.596       .  S
C48        C1637   1.602       .  S
C48        C1654   1.574       .  S
C49        C1581   1.611       .  S
C49        C1595   1.597       .  S
C49        C1609   1.591       .  S
C50        C1542   1.599       .  S
C50        C1556   1.573       .  S
C50        C1567   1.605       .  S
C51        C1500   1.604       .  S
C51        C1511   1.594       .  S
C51        C1525   1.600       .  S
C52        C1458   1.599       .  S
C52        C1469   1.597       .  S
C52        C1483   1.609       .  S
C53        C1413   1.609       .  S
C53        C1430   1.591       .  S
C53        C1444   1.596       .  S
C54          C55   1.428   1_556  A
C54          C59   1.393       .  A
C54        C1399   1.484       .  S
C55          C56   1.414       .  A
C55        C1371   1.516       .  S
C56          C57   1.408       .  A
C56          H61   1.082       .  S
C57          C58   1.405   1_554  A
C57        C1385   1.485       .  S
C58          C59   1.379       .  A
C58        C1360   1.483       .  S
C59          H60   1.086       .  S
C62          C63   1.414   1_565  A
C62          C67   1.394       .  A
C62        C1343   1.492       .  S
C63          C64   1.414       .  A
C63        C1315   1.495       .  S
C64          C65   1.416       .  A
C64          H69   1.084       .  S
C65          C66   1.414   1_545  A
C65        C1329   1.503       .  S
C66          C67   1.389       .  A
C66        C1301   1.482       .  S
C67          H68   1.086       .  S
C70          C71   1.413   1_655  A
C70          C75   1.403       .  A
C70        C1259   1.490       .  S
C71          C72   1.402       .  A
C71        C1287   1.486       .  S
C72          C73   1.399       .  A
C72          H77   1.083       .  S
C73          C74   1.415   1_455  A
C73        C1245   1.500       .  S
C74          C75   1.402       .  A
C74        C1273   1.481       .  S
C75          H76   1.082       .  S
C78          C79   1.415       .  A
C78          C83   1.415       .  A
C78        C1528   1.510       .  S
C79          C80   1.403       .  A
C79        C1651   1.491       .  S
C80          C81   1.397       .  A
C80          H85   1.084       .  S
C81          C82   1.414       .  A
C81        C1234   1.496       .  S
C82          C83   1.410       .  A
C82        C1217   1.503       .  S
C83          H84   1.084       .  S
C86          C87   1.414       .  A
C86          C91   1.412       .  A
C86        C1486   1.512       .  S
C87          C88   1.409       .  A
C87        C1640   1.485       .  S
C88          C89   1.407       .  A
C88          H93   1.085       .  S
C89          C90   1.420       .  A
C89        C1206   1.515       .  S
C90          C91   1.414       .  A
C90        C1192   1.496       .  S
C91          H92   1.086       .  S
C94          C95   1.417       .  A
C94          C99   1.408       .  A
C94        C1570   1.511       .  S
C95          C96   1.408       .  A
C95        C1626   1.491       .  S
C96          C97   1.413       .  A
C96         H101   1.082       .  S
C97          C98   1.422       .  A
C97        C1161   1.514       .  S
C98          C99   1.413       .  A
C98        C1178   1.503       .  S
C99         H100   1.083       .  S
C102        C103   1.432   1_556  A
C102        C107   1.400       .  A
C102       C1147   1.512       .  S
C103        C104   1.405       .  A
C103       C1133   1.488       .  S
C104        C105   1.400       .  A
C104        H109   1.084       .  S
C105        C106   1.403   1_554  A
C105       C1108   1.492       .  S
C106        C107   1.401       .  A
C106       C1119   1.479       .  S
C107        H108   1.082       .  S
C110        C111   1.420   1_554  A
C110        C115   1.397       .  A
C110       C1080   1.481       .  S
C111        C112   1.405       .  A
C111       C1094   1.505       .  S
C112        C113   1.401       .  A
C112        H117   1.083       .  S
C113        C114   1.410   1_556  A
C113       C1066   1.482       .  S
C114        C115   1.395       .  A
C114       C1049   1.488       .  S
C115        H116   1.083       .  S
C118        C119   1.410   1_655  A
C118        C123   1.404       .  A
C118       C1021   1.504       .  S
C119        C120   1.405       .  A
C119       C1035   1.491       .  S
C120        C121   1.412       .  A
C120        H125   1.086       .  S
C121        C122   1.420   1_455  A
C121        C996   1.499       .  S
C122        C123   1.411       .  A
C122       C1010   1.512       .  S
C123        H124   1.086       .  S
C126        C127   1.428       .  A
C126        C131   1.412       .  A
C126       C1497   1.503       .  S
C127        C128   1.404       .  A
C127       C1612   1.516       .  S
C128        C129   1.405       .  A
C128        H133   1.085       .  S
C129        C130   1.422       .  A
C129        C968   1.489       .  S
C130        C131   1.412       .  A
C130        C979   1.523       .  S
C131        H132   1.084       .  S
C134        C135   1.413       .  A
C134        C139   1.405       .  A
C134       C1472   1.495       .  S
C135        C136   1.393       .  A
C135       C1738   1.485       .  S
C136        C137   1.396       .  A
C136        H141   1.088       .  S
C137        C138   1.425       .  A
C137        C940   1.500       .  S
C138        C139   1.413       .  A
C138        C951   1.501       .  S
C139        H140   1.085       .  S
C142        C163   1.576       .  S
C142        C895   1.580       .  S
C142        C909   1.581       .  S
C142        C923   1.607       .  S
N143        N144   1.330       .  A
N143        N149   1.317       .  A
N143       Mn172   2.268   1_556  S
N144        C151   1.365       .  A
N145        N147   1.315       .  A
N145        N146   1.331       .  A
N145       Mn161   2.261   1_455  S
N146        C152   1.367       .  A
N147        N148   1.324       .  A
N147       Mn172   2.233       .  S
N148        C152   1.357       .  A
N149        N150   1.328       .  A
N149       Mn161   2.253   1_456  S
N150        C151   1.361       .  A
C151        C190   1.594       .  S
C152        C201   1.591       .  S
N153        N159   1.319       .  A
N153        N154   1.329       .  A
N153       Mn183   2.267       .  S
N154        C162   1.364       .  A
N155        N156   1.330       .  A
N155        N157   1.317       .  A
N155       Mn161   2.247   1_556  S
N156        C163   1.363       .  A
N157        N158   1.322       .  A
N157       Mn183   2.242   1_556  S
N158        C163   1.360       .  A
N159        N160   1.329       .  A
N159       Mn161   2.267       .  S
N160        C162   1.362       .  A
Mn161      Cl185   2.557       .  S
C162        C192   1.595       .  S
N164        N165   1.322       .  A
N164        N170   1.316       .  A
N164       Mn172   2.222       .  S
N165        C173   1.360       .  A
N166        N168   1.313       .  A
N166        N167   1.327       .  A
N166       Mn184   2.208   1_456  S
N167        C174   1.363       .  A
N168        N169   1.315       .  A
N168       Mn172   2.220   1_556  S
N169        C174   1.352       .  A
N170        N171   1.325       .  A
N170       Mn184   2.228   1_455  S
N171        C173   1.359       .  A
Mn172      Cl185   2.583   1_455  S
C173        C202   1.550       .  S
C174        C189   1.572       .  S
N175        N176   1.333       .  A
N175        N181   1.320       .  A
N175       Mn183   2.294   1_556  S
N176        C186   1.369       .  A
N177        N178   1.318       .  A
N177        N179   1.313       .  A
N177       Mn184   2.196       .  S
N178        C187   1.352       .  A
N179        N180   1.324       .  A
N179       Mn183   2.218       .  S
N180        C187   1.362       .  A
N181        N182   1.330       .  A
N181       Mn184   2.256   1_556  S
N182        C186   1.360       .  A
Mn183      Cl185   2.603       .  S
Mn184      Cl185   2.541       .  S
C186        C191   1.599       .  S
C187        C188   1.542       .  S
C188        C982   1.578       .  S
C188       C1077   1.593       .  S
C188       C1276   1.594       .  S
C189        C954   1.585       .  S
C189       C1038   1.571       .  S
C189       C1357   1.590       .  S
C190        C881   1.604       .  S
C190        C937   1.587       .  S
C190       C1122   1.583       .  S
C191        C867   1.589       .  S
C191       C1024   1.609       .  S
C191       C1091   1.600       .  S
C192        C839   1.587       .  S
C192        C856   1.595       .  S
C192        C965   1.588       .  S
C193        C194   1.409       .  A
C193        C198   1.403       .  A
C193       C1668   1.504       .  S
C194        C195   1.412       .  A
C194       C1427   1.499       .  S
C195        C196   1.420       .  A
C195        H200   1.083       .  S
C196        C197   1.424       .  A
C196        C926   1.514       .  S
C197        C198   1.409       .  A
C197        C870   1.506       .  S
C198        H199   1.084       .  S
C201        C825   1.595       .  S
C201       C1105   1.589       .  S
C201       C1175   1.606       .  S
C202       C1164   1.602       .  S
C202       C1248   1.600       .  S
C202       C1388   1.567       .  S
C203        C204   1.403   1_565  A
C203        C208   1.402       .  A
C203        C814   1.482       .  S
C204        C205   1.391       .  A
C204        C797   1.486       .  S
C205        C206   1.401       .  A
C205        H210   1.085       .  S
C206        C207   1.431   1_545  A
C206        C783   1.492       .  S
C207        C208   1.412       .  A
C207        C769   1.516       .  S
C208        H209   1.083       .  S
C211        C212   1.419       .  A
C211        C216   1.405       .  A
C211       C1598   1.501       .  S
C212        C213   1.407       .  A
C212       C1539   1.510       .  S
C213        C214   1.412       .  A
C213        H218   1.080       .  S
C214        C215   1.416       .  A
C214        C741   1.507       .  S
C215        C216   1.408       .  A
C215        C755   1.505       .  S
C216        H217   1.084       .  S
C219        C220   1.412       .  A
C219        C224   1.412       .  A
C219       C1682   1.497       .  S
C220        C221   1.406       .  A
C220       C1455   1.498       .  S
C221        C222   1.408       .  A
C221        H226   1.083       .  S
C222        C223   1.414       .  A
C222        C716   1.505       .  S
C223        C224   1.418       .  A
C223        C727   1.504       .  S
C224        H225   1.082       .  S
C227        C248   1.582       .  S
C227        C699   1.590       .  S
C227        C730   1.587       .  S
C227       C1063   1.579       .  S
N228        N229   1.319       .  A
N228        N234   1.314       .  A
N228       Mn257   2.201   1_556  S
N229        C236   1.350       .  A
N230        N232   1.316       .  A
N230        N231   1.331       .  A
N230       Mn246   2.265   1_565  S
N231        C237   1.367       .  A
N232        N233   1.325       .  A
N232       Mn257   2.235       .  S
N233        C237   1.358       .  A
N234        N235   1.329       .  A
N234       Mn246   2.264   1_566  S
N235        C236   1.368       .  A
C236        C276   1.574       .  S
C237        C273   1.588       .  S
N238        N244   1.315       .  A
N238        N239   1.320       .  A
N238       Mn268   2.179       .  S
N239        C247   1.351       .  A
N240        N241   1.323       .  A
N240        N242   1.317       .  A
N240       Mn246   2.247   1_556  S
N241        C248   1.359       .  A
N242        N243   1.332       .  A
N242       Mn268   2.252   1_556  S
N243        C248   1.364       .  A
N244        N245   1.322       .  A
N244       Mn246   2.250       .  S
N245        C247   1.362       .  A
Mn246      Cl270   2.567       .  S
C247        C287   1.554       .  S
N249        N250   1.329       .  A
N249        N255   1.314       .  A
N249       Mn257   2.228       .  S
N250        C258   1.365       .  A
N251        N253   1.317       .  A
N251        N252   1.321       .  A
N251       Mn269   2.227   1_566  S
N252        C259   1.362       .  A
N253        N254   1.329       .  A
N253       Mn257   2.233   1_556  S
N254        C259   1.358       .  A
N255        N256   1.315       .  A
N255       Mn269   2.218   1_565  S
N256        C258   1.345       .  A
Mn257      Cl270   2.552   1_565  S
C258        C277   1.556       .  S
C259        C274   1.561       .  S
N260        N261   1.324       .  A
N260        N266   1.316       .  A
N260       Mn268   2.223   1_556  S
N261        C271   1.355       .  A
N262        N263   1.326       .  A
N262        N264   1.313       .  A
N262       Mn269   2.237       .  S
N263        C272   1.364       .  A
N264        N265   1.329       .  A
N264       Mn268   2.242       .  S
N265        C272   1.361       .  A
N266        N267   1.325       .  A
N266       Mn269   2.243   1_556  S
N267        C271   1.364       .  A
Mn268      Cl270   2.552       .  S
Mn269      Cl270   2.564       .  S
C271        C275   1.572       .  S
C272        C286   1.576       .  S
C273        C671   1.582       .  S
C273        C685   1.591       .  S
C273        C758   1.610       .  S
C274        C657   1.595       .  S
C274        C811   1.565       .  S
C274       C1150   1.589       .  S
C275        C713   1.600       .  S
C275        C800   1.576       .  S
C275       C1402   1.583       .  S
C276        C618   1.565       .  S
C276        C632   1.585       .  S
C276        C643   1.607       .  S
C277        C744   1.576       .  S
C277       C1136   1.597       .  S
C277       C1304   1.631       .  S
C278        C279   1.435       .  A
C278        C283   1.415       .  A
C278       C1416   1.526       .  S
C279        C280   1.407       .  A
C279       C1707   1.501       .  S
C280        C281   1.396       .  A
C280        H285   1.086       .  S
C281        C282   1.404       .  A
C281        C660   1.480       .  S
C282        C283   1.406       .  A
C282        C646   1.503       .  S
C283        H284   1.083       .  S
C286       C1231   1.609       .  S
C286       C1332   1.584       .  S
C286       C1374   1.600       .  S
C287        C601   1.569       .  S
C287       C1052   1.590       .  S
C287       C1220   1.587       .  S
C288        C289   1.409   1_655  A
C288        C293   1.406       .  A
C288        C853   1.489       .  S
C289        C290   1.409       .  A
C289        C828   1.505       .  S
C290        C291   1.411       .  A
C290        H295   1.084       .  S
C291        C292   1.412   1_455  A
C291        C573   1.497       .  S
C292        C293   1.404       .  A
C292        C587   1.502       .  S
C293        H294   1.084       .  S
C296        C297   1.407   1_565  A
C296        C301   1.402       .  A
C296        C688   1.514       .  S
C297        C298   1.405       .  A
C297        C604   1.470       .  S
C298        C299   1.399       .  A
C298        H303   1.083       .  S
C299        C300   1.424   1_545  A
C299        C559   1.512       .  S
C300        C301   1.410       .  A
C300        C545   1.485       .  S
C301        H302   1.085       .  S
C304        C305   1.417       .  A
C304        C309   1.408       .  A
C304       C1696   1.495       .  S
C305        C306   1.404       .  A
C305       C1514   1.501       .  S
C306        C307   1.403       .  A
C306        H311   1.085       .  S
C307        C308   1.409       .  A
C307        C520   1.482       .  S
C308        C309   1.401       .  A
C308        C531   1.501       .  S
C309        H310   1.085       .  S
C312        C313   1.407       .  A
C312        C317   1.404       .  A
C312       C1553   1.487       .  S
C313        C314   1.395       .  A
C313       C1724   1.487       .  S
C314        C315   1.406       .  A
C314        H319   1.086       .  S
C315        C316   1.419       .  A
C315        C506   1.487       .  S
C316        C317   1.412       .  A
C316        C492   1.509       .  S
C317        H318   1.085       .  S
C320        C341   1.573       .  S
C320        C517   1.570       .  S
C320        C562   1.581       .  S
C320       C1262   1.600       .  S
N321        N322   1.328       .  A
N321        N327   1.317       .  A
N321       Mn350   2.225       .  S
N322        C329   1.358       .  A
N323        N325   1.319       .  A
N323        N324   1.327       .  A
N323       Mn339   2.221   1_565  S
N324        C330   1.357       .  A
N325        N326   1.326       .  A
N325       Mn350   2.277   1_565  S
N326        C330   1.365       .  A
N327        N328   1.330       .  A
N327       Mn339   2.286       .  S
N328        C329   1.368       .  A
C329        C369   1.593       .  S
C330        C370   1.584       .  S
N331        N337   1.317       .  A
N331        N332   1.331       .  A
N331       Mn361   2.231   1_565  S
N332        C340   1.362       .  A
N333        N334   1.325       .  A
N333        N335   1.318       .  A
N333       Mn339   2.234       .  S
N334        C341   1.364       .  A
N335        N336   1.327       .  A
N335       Mn361   2.250       .  S
N336        C341   1.359       .  A
N337        N338   1.326       .  A
N337       Mn339   2.275   1_565  S
N338        C340   1.363       .  A
Mn339      Cl363   2.569       .  S
C340        C366   1.589       .  S
N342        N343   1.326       .  A
N342        N348   1.317       .  A
N342       Mn350   2.264   1_465  S
N343        C351   1.368       .  A
N344        N346   1.315       .  A
N344        N345   1.325       .  A
N344       Mn362   2.247       .  S
N345        C352   1.363       .  A
N346        N347   1.328       .  A
N346       Mn350   2.241   1_455  S
N347        C352   1.357       .  A
N348        N349   1.329       .  A
N348       Mn362   2.219   1_565  S
N349        C351   1.356       .  A
Mn350      Cl363   2.567       .  S
C351        C368   1.572       .  S
C352        C380   1.580       .  S
N353        N354   1.318       .  A
N353        N359   1.316       .  A
N353       Mn361   2.226   1_455  S
N354        C364   1.354       .  A
N355        N356   1.326       .  A
N355        N357   1.315       .  A
N355       Mn362   2.224   1_565  S
N356        C365   1.358       .  A
N357        N358   1.323       .  A
N357       Mn361   2.248   1_465  S
N358        C365   1.360       .  A
N359        N360   1.331       .  A
N359       Mn362   2.242       .  S
N360        C364   1.366       .  A
Mn361      Cl363   2.571       .  S
Mn362      Cl363   2.576   1_455  S
C364        C379   1.566       .  S
C365        C367   1.578       .  S
C366        C475   1.590       .  S
C366        C548   1.584       .  S
C366        C590   1.587       .  S
C367        C489   1.598       .  S
C367        C576   1.601       .  S
C367       C1346   1.584       .  S
C368        C464   1.581       .  S
C368        C503   1.609       .  S
C368        C772   1.609       .  S
C369        C450   1.582       .  S
C369        C534   1.604       .  S
C369       C1007   1.605       .  S
C370        C408   1.595       .  S
C370        C419   1.577       .  S
C370        C433   1.595       .  S
C371        C372   1.417       .  A
C371        C376   1.399       .  A
C371       C1584   1.505       .  S
C372        C373   1.409       .  A
C372       C1441   1.493       .  S
C373        C374   1.403       .  A
C373        H378   1.085       .  S
C374        C375   1.407       .  A
C374        C436   1.508       .  S
C375        C376   1.404       .  A
C375        C478   1.476       .  S
C376        H377   1.086       .  S
C379       C1203   1.577       .  S
C379       C1290   1.616       .  S
C379       C1318   1.593       .  S
C380        C786   1.600       .  S
C380        C993   1.628       .  S
C380       C1189   1.588       .  S
C381        C382   1.411   1_455  A
C381        C386   1.412       .  A
C381        C884   1.495       .  S
C382        C383   1.402       .  A
C382        C912   1.497       .  S
C383        C384   1.401       .  A
C383        H388   1.085       .  S
C384        C385   1.413   1_655  A
C384        C405   1.495       .  S
C385        C386   1.409       .  A
C385        C461   1.499       .  S
C386        H387   1.084       .  S
C389        C390   1.401   1_545  A
C389        C394   1.402       .  A
C389        C702   1.478       .  S
C390        C391   1.401       .  A
C390        C615   1.482       .  S
C391        C392   1.403       .  A
C391        H396   1.087       .  S
C392        C393   1.410   1_565  A
C392        C422   1.485       .  S
C393        C394   1.402       .  A
C393        C447   1.491       .  S
C394        H395   1.086       .  S
C397        C398   1.412   1_554  A
C397        C402   1.397       .  A
C397        C842   1.488       .  S
C398        C399   1.404       .  A
C398        C898   1.487       .  S
C399        C400   1.400       .  A
C399        H404   1.087       .  S
C400        C401   1.405   1_556  A
C400        C629   1.479       .  S
C401        C402   1.394       .  A
C401        C674   1.480       .  S
C402        H403   1.087       .  S
C405        C406   1.404       .  A
C405        C410   1.404       .  A
C406        C407   1.413       .  A
C406        C411   1.453       .  S
C407        C408   1.447       .  A
C407        C414   1.457       .  S
C408        C409   1.444       .  A
C409        C410   1.408       .  A
C409        C412   1.452       .  S
C410        C413   1.457       .  S
C411        N418   1.157       .  T
C412        N417   1.158       .  T
C413        N415   1.157       .  T
C414        N416   1.158       .  T
C419        C420   1.440       .  A
C419        C424   1.440       .  A
C420        C421   1.415       .  A
C420        C425   1.451       .  S
C421        C422   1.405       .  A
C421        C428   1.453       .  S
C422        C423   1.400       .  A
C423        C424   1.394       .  A
C423        C426   1.448       .  S
C424        C427   1.456       .  S
C425        N432   1.158       .  T
C426        N431   1.155       .  T
C427        N429   1.158       .  T
C428        N430   1.157   1_565  T
C433        C434   1.434       .  A
C433        C438   1.453       .  A
C434        C435   1.421       .  A
C434        C439   1.453       .  S
C435        C436   1.415       .  A
C435        C442   1.449       .  S
C436        C437   1.403       .  A
C437        C438   1.407       .  A
C437        C440   1.460       .  S
C438        C441   1.453       .  S
C439        N446   1.158       .  T
C440        N445   1.158       .  T
C441        N443   1.158       .  T
C442        N444   1.157       .  T
C447        C448   1.402       .  A
C447        C452   1.406       .  A
C448        C449   1.398       .  A
C448        C453   1.448       .  S
C449        C450   1.441       .  A
C449        C456   1.456       .  S
C450        C451   1.438       .  A
C451        C452   1.415       .  A
C451        C454   1.448       .  S
C452        C455   1.451       .  S
C453        N460   1.155       .  T
C454        N459   1.157       .  T
C455        N457   1.157       .  T
C456        N458   1.158       .  T
C461        C462   1.410       .  A
C461        C466   1.416       .  A
C462        C463   1.407       .  A
C462        C467   1.451       .  S
C463        C464   1.419       .  A
C463        C470   1.442       .  S
C464        C465   1.433       .  A
C465        C466   1.415       .  A
C465        C468   1.454       .  S
C466        C469   1.450       .  S
C467        N474   1.157       .  T
C468        N473   1.157       .  T
C469        N471   1.157       .  T
C470        N472   1.154       .  T
C475        C476   1.452       .  A
C475        C480   1.448       .  A
C476        C477   1.401       .  A
C476        C481   1.453       .  S
C477        C478   1.396       .  A
C477        C484   1.461       .  S
C478        C479   1.400       .  A
C479        C480   1.410       .  A
C479        C482   1.455       .  S
C480        C483   1.456       .  S
C481        N488   1.158       .  T
C482        N487   1.157       .  T
C483        N485   1.158       .  T
C484        N486   1.158       .  T
C489        C490   1.448       .  A
C489        C494   1.438       .  A
C490        C491   1.413       .  A
C490        C495   1.453       .  S
C491        C492   1.405       .  A
C491        C498   1.455       .  S
C492        C493   1.411       .  A
C493        C494   1.423       .  A
C493        C496   1.450       .  S
C494        C497   1.452       .  S
C495        N502   1.158       .  T
C496        N501   1.157       .  T
C497        N499   1.158       .  T
C498        N500   1.157       .  T
C503        C504   1.458       .  A
C503        C508   1.448       .  A
C504        C505   1.413       .  A
C504        C509   1.449       .  S
C505        C506   1.395       .  A
C505        C512   1.459       .  S
C506        C507   1.393       .  A
C507        C508   1.414       .  A
C507        C510   1.457       .  S
C508        C511   1.441       .  S
C509        N516   1.158       .  T
C510        N515   1.157       .  T
C511        N513   1.158       .  T
C512        N514   1.157       .  T
C517        C518   1.424       .  A
C517        C522   1.425       .  A
C518        C519   1.399       .  A
C518        C523   1.452       .  S
C519        C520   1.406       .  A
C519        C526   1.452       .  S
C520        C521   1.412       .  A
C521        C522   1.412       .  A
C521        C524   1.451       .  S
C522        C525   1.448       .  S
C523        N530   1.158       .  T
C524        N529   1.157       .  T
C525        N527   1.156       .  T
C526        N528   1.157       .  T
C531        C532   1.403       .  A
C531        C536   1.401       .  A
C532        C533   1.417       .  A
C532        C537   1.453       .  S
C533        C534   1.450       .  A
C533        C540   1.457       .  S
C534        C535   1.450       .  A
C535        C536   1.414       .  A
C535        C538   1.450       .  S
C536        C539   1.457       .  S
C537        N544   1.157       .  T
C538        N543   1.158       .  T
C539        N541   1.157       .  T
C540        N542   1.158       .  T
C545        C546   1.397       .  A
C545        C550   1.408       .  A
C546        C547   1.399       .  A
C546        C551   1.451       .  S
C547        C548   1.443       .  A
C547        C554   1.452       .  S
C548        C549   1.435       .  A
C549        C550   1.412       .  A
C549        C552   1.450       .  S
C550        C553   1.450       .  S
C551        N558   1.157       .  T
C552        N557   1.158       .  T
C553        N555   1.157       .  T
C554        N556   1.158       .  T
C559        C560   1.390       .  A
C559        C564   1.421       .  A
C560        C561   1.394       .  A
C560        C565   1.443       .  S
C561        C562   1.416       .  A
C561        C568   1.434       .  S
C562        C563   1.444       .  A
C563        C564   1.425       .  A
C563        C566   1.446       .  S
C564        C567   1.448       .  S
C565        N572   1.158       .  T
C566        N571   1.157       .  T
C567        N569   1.157       .  T
C568        N570   1.155       .  T
C573        C574   1.402       .  A
C573        C578   1.406       .  A
C574        C575   1.409       .  A
C574        C579   1.458       .  S
C575        C576   1.448       .  A
C575        C582   1.451       .  S
C576        C577   1.449       .  A
C577        C578   1.415       .  A
C577        C580   1.457       .  S
C578        C581   1.454       .  S
C579        N586   1.157       .  T
C580        N585   1.158       .  T
C581        N583   1.157   1_455  T
C582        N584   1.158       .  T
C587        C588   1.406       .  A
C587        C592   1.411       .  A
C588        C589   1.406       .  A
C588        C593   1.456       .  S
C589        C590   1.446       .  A
C589        C596   1.454       .  S
C590        C591   1.435       .  A
C591        C592   1.416       .  A
C591        C594   1.453       .  S
C592        C595   1.450       .  S
C593        N600   1.158       .  T
C594        N599   1.157       .  T
C595        N597   1.157       .  T
C596        N598   1.158       .  T
C601        C602   1.434       .  A
C601        C606   1.443       .  A
C602        C603   1.396       .  A
C602        C607   1.454       .  S
C603        C604   1.402       .  A
C603        C610   1.455       .  S
C604        C605   1.400       .  A
C605        C606   1.404       .  A
C605        C608   1.455       .  S
C606        C609   1.458       .  S
C607        N614   1.158       .  T
C608        N613   1.157       .  T
C609        N611   1.158       .  T
C610        N612   1.157       .  T
C615        C616   1.395       .  A
C615        C620   1.412       .  A
C616        C617   1.384       .  A
C616        C621   1.445       .  S
C617        C618   1.435       .  A
C617        C624   1.452       .  S
C618        C619   1.430       .  A
C619        C620   1.414       .  A
C619        C622   1.450       .  S
C620        C623   1.446       .  S
C621        N628   1.155       .  T
C622        N627   1.157       .  T
C623        N625   1.157   1_565  T
C624        N626   1.158       .  T
C629        C630   1.397       .  A
C629        C634   1.398       .  A
C630        C631   1.408       .  A
C630        C635   1.451       .  S
C631        C632   1.445       .  A
C631        C638   1.451       .  S
C632        C633   1.440       .  A
C633        C634   1.400       .  A
C633        C636   1.452       .  S
C634        C637   1.448       .  S
C635        N642   1.157       .  T
C636        N641   1.158       .  T
C637        N639   1.156       .  T
C638        N640   1.158       .  T
C643        C644   1.454       .  A
C643        C648   1.445       .  A
C644        C645   1.412       .  A
C644        C649   1.450       .  S
C645        C646   1.398       .  A
C645        C652   1.455       .  S
C646        C647   1.406       .  A
C647        C648   1.417       .  A
C647        C650   1.451       .  S
C648        C651   1.454       .  S
C649        N656   1.158       .  T
C650        N655   1.157       .  T
C651        N653   1.158       .  T
C652        N654   1.157       .  T
C657        C658   1.442       .  A
C657        C662   1.448       .  A
C658        C659   1.407       .  A
C658        C663   1.443       .  S
C659        C660   1.395       .  A
C659        C666   1.448       .  S
C660        C661   1.394       .  A
C661        C662   1.402       .  A
C661        C664   1.452       .  S
C662        C665   1.445       .  S
C663        N670   1.158       .  T
C664        N669   1.157       .  T
C665        N667   1.158       .  T
C666        N668   1.157       .  T
C671        C672   1.442       .  A
C671        C676   1.439       .  A
C672        C673   1.400       .  A
C672        C677   1.452       .  S
C673        C674   1.398       .  A
C673        C680   1.453       .  S
C674        C675   1.403       .  A
C675        C676   1.410       .  A
C675        C678   1.450       .  S
C676        C679   1.451       .  S
C677        N684   1.158       .  T
C678        N683   1.157       .  T
C679        N681   1.158       .  T
C680        N682   1.157       .  T
C685        C686   1.433       .  A
C685        C690   1.445       .  A
C686        C687   1.420       .  A
C686        C691   1.452       .  S
C687        C688   1.414       .  A
C687        C694   1.448       .  S
C688        C689   1.410       .  A
C689        C690   1.412       .  A
C689        C692   1.455       .  S
C690        C693   1.454       .  S
C691        N698   1.157       .  T
C692        N697   1.157       .  T
C693        N695   1.158       .  T
C694        N696   1.157   1_565  T
C699        C700   1.446       .  A
C699        C704   1.441       .  A
C700        C701   1.418       .  A
C700        C705   1.455       .  S
C701        C702   1.406       .  A
C701        C708   1.451       .  S
C702        C703   1.391       .  A
C703        C704   1.387       .  A
C703        C706   1.452       .  S
C704        C707   1.451       .  S
C705        N712   1.158       .  T
C706        N711   1.156       .  T
C707        N709   1.158       .  T
C708        N710   1.157       .  T
C713        C714   1.440       .  A
C713        C718   1.443       .  A
C714        C715   1.423       .  A
C714        C719   1.453       .  S
C715        C716   1.413       .  A
C715        C722   1.451       .  S
C716        C717   1.404       .  A
C717        C718   1.402       .  A
C717        C720   1.455       .  S
C718        C721   1.454       .  S
C719        N726   1.158       .  T
C720        N725   1.157       .  T
C721        N723   1.158       .  T
C722        N724   1.157       .  T
C727        C728   1.414       .  A
C727        C732   1.406       .  A
C728        C729   1.418       .  A
C728        C733   1.450       .  S
C729        C730   1.433       .  A
C729        C736   1.452       .  S
C730        C731   1.445       .  A
C731        C732   1.404       .  A
C731        C734   1.458       .  S
C732        C735   1.450       .  S
C733        N740   1.157       .  T
C734        N739   1.158       .  T
C735        N737   1.155       .  T
C736        N738   1.157       .  T
C741        C742   1.420       .  A
C741        C746   1.411       .  A
C742        C743   1.419       .  A
C742        C747   1.449       .  S
C743        C744   1.430       .  A
C743        C750   1.453       .  S
C744        C745   1.435       .  A
C745        C746   1.399       .  A
C745        C748   1.457       .  S
C746        C749   1.452       .  S
C747        N754   1.157       .  T
C748        N753   1.158       .  T
C749        N751   1.157       .  T
C750        N752   1.157       .  T
C755        C756   1.406       .  A
C755        C760   1.403       .  A
C756        C757   1.421       .  A
C756        C761   1.454       .  S
C757        C758   1.450       .  A
C757        C764   1.455       .  S
C758        C759   1.453       .  A
C759        C760   1.411       .  A
C759        C762   1.452       .  S
C760        C763   1.461       .  S
C761        N768   1.157       .  T
C762        N767   1.158       .  T
C763        N765   1.158       .  T
C764        N766   1.158       .  T
C769        C770   1.400       .  A
C769        C774   1.410       .  A
C770        C771   1.415       .  A
C770        C775   1.451   1_565  S
C771        C772   1.442       .  A
C771        C778   1.436       .  S
C772        C773   1.443       .  A
C773        C774   1.419       .  A
C773        C776   1.443       .  S
C774        C777   1.454       .  S
C775        N782   1.157       .  T
C776        N781   1.157       .  T
C777        N779   1.157       .  T
C778        N780   1.155   1_565  T
C783        C784   1.400       .  A
C783        C788   1.390       .  A
C784        C785   1.416       .  A
C784        C789   1.460       .  S
C785        C786   1.456       .  A
C785        C792   1.446       .  S
C786        C787   1.439       .  A
C787        C788   1.407       .  A
C787        C790   1.439       .  S
C788        C791   1.449       .  S
C789        N796   1.158       .  T
C790        N795   1.157       .  T
C791        N793   1.157       .  T
C792        N794   1.158       .  T
C797        C798   1.400       .  A
C797        C802   1.403       .  A
C798        C799   1.400       .  A
C798        C803   1.449       .  S
C799        C800   1.435       .  A
C799        C806   1.454       .  S
C800        C801   1.447       .  A
C801        C802   1.409       .  A
C801        C804   1.451       .  S
C802        C805   1.454       .  S
C803        N810   1.157       .  T
C804        N809   1.158       .  T
C805        N807   1.157       .  T
C806        N808   1.157       .  T
C811        C812   1.425       .  A
C811        C816   1.425       .  A
C812        C813   1.406       .  A
C812        C817   1.452       .  S
C813        C814   1.407       .  A
C813        C820   1.449       .  S
C814        C815   1.410       .  A
C815        C816   1.407       .  A
C815        C818   1.452       .  S
C816        C819   1.450       .  S
C817        N824   1.157       .  T
C818        N823   1.157       .  T
C819        N821   1.157       .  T
C820        N822   1.157       .  T
C825        C826   1.432       .  A
C825        C830   1.448       .  A
C826        C827   1.418       .  A
C826        C831   1.444       .  S
C827        C828   1.413       .  A
C827        C834   1.450       .  S
C828        C829   1.403       .  A
C829        C830   1.405       .  A
C829        C832   1.455       .  S
C830        C833   1.451       .  S
C831        N838   1.155       .  T
C832        N837   1.157       .  T
C833        N835   1.158       .  T
C834        N836   1.157   1_455  T
C839        C840   1.448       .  A
C839        C844   1.441       .  A
C840        C841   1.402       .  A
C840        C845   1.454       .  S
C841        C842   1.402       .  A
C841        C848   1.458       .  S
C842        C843   1.403       .  A
C843        C844   1.413       .  A
C843        C846   1.453       .  S
C844        C847   1.449       .  S
C845        N852   1.158       .  T
C846        N851   1.157       .  T
C847        N849   1.158       .  T
C848        N850   1.157       .  T
C853        C854   1.399       .  A
C853        C858   1.408       .  A
C854        C855   1.400       .  A
C854        C859   1.458       .  S
C855        C856   1.450       .  A
C855        C862   1.455       .  S
C856        C857   1.440       .  A
C857        C858   1.417       .  A
C857        C860   1.453       .  S
C858        C861   1.452       .  S
C859        N866   1.158       .  T
C860        N865   1.158       .  T
C861        N863   1.157       .  T
C862        N864   1.158       .  T
C867        C868   1.443       .  A
C867        C872   1.438       .  A
C868        C869   1.408       .  A
C868        C873   1.452       .  S
C869        C870   1.408       .  A
C869        C876   1.458       .  S
C870        C871   1.410       .  A
C871        C872   1.422       .  A
C871        C874   1.451       .  S
C872        C875   1.455       .  S
C873        N880   1.158       .  T
C874        N879   1.157       .  T
C875        N877   1.158       .  T
C876        N878   1.157       .  T
C881        C882   1.453       .  A
C881        C886   1.447       .  A
C882        C883   1.409       .  A
C882        C887   1.453       .  S
C883        C884   1.400       .  A
C883        C890   1.459       .  S
C884        C885   1.404       .  A
C885        C886   1.418       .  A
C885        C888   1.454       .  S
C886        C889   1.455       .  S
C887        N894   1.158       .  T
C888        N893   1.157       .  T
C889        N891   1.158       .  T
C890        N892   1.157       .  T
C895        C896   1.439       .  A
C895        C900   1.450       .  A
C896        C897   1.409       .  A
C896        C901   1.446       .  S
C897        C898   1.402       .  A
C897        C904   1.454       .  S
C898        C899   1.400       .  A
C899        C900   1.410       .  A
C899        C902   1.455       .  S
C900        C903   1.456       .  S
C901        N908   1.157       .  T
C902        N907   1.157       .  T
C903        N905   1.158       .  T
C904        N906   1.156       .  T
C909        C910   1.430       .  A
C909        C914   1.446       .  A
C910        C911   1.416       .  A
C910        C915   1.450       .  S
C911        C912   1.411       .  A
C911        C918   1.450       .  S
C912        C913   1.404       .  A
C913        C914   1.404       .  A
C913        C916   1.457       .  S
C914        C917   1.455       .  S
C915        N922   1.157       .  T
C916        N921   1.158       .  T
C917        N919   1.158       .  T
C918        N920   1.157   1_655  T
C923        C924   1.449       .  A
C923        C928   1.418       .  A
C924        C925   1.427       .  A
C924        C929   1.447       .  S
C925        C926   1.417       .  A
C925        C932   1.452       .  S
C926        C927   1.408       .  A
C927        C928   1.398       .  A
C927        C930   1.444       .  S
C928        C931   1.435       .  S
C929        N936   1.158       .  T
C930        N935   1.157       .  T
C931        N933   1.154       .  T
C932        N934   1.157       .  T
C937        C938   1.443       .  A
C937        C942   1.434       .  A
C938        C939   1.402       .  A
C938        C943   1.453       .  S
C939        C940   1.406       .  A
C939        C946   1.459       .  S
C940        C941   1.410       .  A
C941        C942   1.423       .  A
C941        C944   1.451       .  S
C942        C945   1.453       .  S
C943        N950   1.158       .  T
C944        N949   1.157       .  T
C945        N947   1.157       .  T
C946        N948   1.157       .  T
C951        C952   1.416       .  A
C951        C956   1.399       .  A
C952        C953   1.420       .  A
C952        C957   1.452       .  S
C953        C954   1.439       .  A
C953        C960   1.446       .  S
C954        C955   1.408       .  A
C955        C956   1.395       .  A
C955        C958   1.435       .  S
C956        C959   1.444       .  S
C957        N964   1.156       .  T
C958        N963   1.155       .  T
C959        N961   1.157       .  T
C960        N962   1.158       .  T
C965        C966   1.441       .  A
C965        C970   1.447       .  A
C966        C967   1.417       .  A
C966        C971   1.449       .  S
C967        C968   1.401       .  A
C967        C974   1.451       .  S
C968        C969   1.403       .  A
C969        C970   1.405       .  A
C969        C972   1.458       .  S
C970        C973   1.451       .  S
C971        N978   1.155       .  T
C972        N977   1.158       .  T
C973        N975   1.158       .  T
C974        N976   1.157       .  T
C979        C980   1.426       .  A
C979        C984   1.413       .  A
C980        C981   1.421       .  A
C980        C985   1.449       .  S
C981        C982   1.439       .  A
C981        C988   1.452       .  S
C982        C983   1.409       .  A
C983        C984   1.387       .  A
C983        C986   1.442       .  S
C984        C987   1.441       .  S
C985        N992   1.157       .  T
C986        N991   1.157       .  T
C987        N989   1.157       .  T
C988        N990   1.158       .  T
C993        C994   1.452       .  A
C993        C998   1.457       .  A
C994        C995   1.415       .  A
C994        C999   1.444       .  S
C995        C996   1.396       .  A
C995       C1002   1.456       .  S
C996        C997   1.394       .  A
C997        C998   1.421       .  A
C997       C1000   1.457       .  S
C998       C1001   1.438       .  S
C999       N1006   1.157       .  T
C1000      N1005   1.157       .  T
C1001      N1003   1.158       .  T
C1002      N1004   1.157       .  T
C1007      C1008   1.453       .  A
C1007      C1012   1.437       .  A
C1008      C1009   1.409       .  A
C1008      C1013   1.452       .  S
C1009      C1010   1.401       .  A
C1009      C1016   1.460       .  S
C1010      C1011   1.412       .  A
C1011      C1012   1.429       .  A
C1011      C1014   1.448       .  S
C1012      C1015   1.451       .  S
C1013      N1020   1.158       .  T
C1014      N1019   1.157   1_655  T
C1015      N1017   1.158       .  T
C1016      N1018   1.158       .  T
C1021      C1022   1.400       .  A
C1021      C1026   1.406       .  A
C1022      C1023   1.411       .  A
C1022      C1027   1.455       .  S
C1023      C1024   1.454       .  A
C1023      C1030   1.452       .  S
C1024      C1025   1.443       .  A
C1025      C1026   1.419       .  A
C1025      C1028   1.450       .  S
C1026      C1029   1.451       .  S
C1027      N1034   1.157       .  T
C1028      N1033   1.157       .  T
C1029      N1031   1.157       .  T
C1030      N1032   1.158       .  T
C1035      C1036   1.412       .  A
C1035      C1040   1.408       .  A
C1036      C1037   1.412       .  A
C1036      C1041   1.450       .  S
C1037      C1038   1.424       .  A
C1037      C1044   1.449       .  S
C1038      C1039   1.422       .  A
C1039      C1040   1.408       .  A
C1039      C1042   1.449       .  S
C1040      C1043   1.450       .  S
C1041      N1048   1.157       .  T
C1042      N1047   1.156       .  T
C1043      N1045   1.157       .  T
C1044      N1046   1.157       .  T
C1049      C1050   1.402       .  A
C1049      C1054   1.394       .  A
C1050      C1051   1.409       .  A
C1050      C1055   1.453       .  S
C1051      C1052   1.455       .  A
C1051      C1058   1.450       .  S
C1052      C1053   1.426       .  A
C1053      C1054   1.393       .  A
C1053      C1056   1.440       .  S
C1054      C1057   1.444       .  S
C1055      N1062   1.157       .  T
C1056      N1061   1.156       .  T
C1057      N1059   1.157       .  T
C1058      N1060   1.158       .  T
C1063      C1064   1.440       .  A
C1063      C1068   1.440       .  A
C1064      C1065   1.398       .  A
C1064      C1069   1.452       .  S
C1065      C1066   1.397       .  A
C1065      C1072   1.450       .  S
C1066      C1067   1.402       .  A
C1067      C1068   1.412       .  A
C1067      C1070   1.450       .  S
C1068      C1071   1.452       .  S
C1069      N1076   1.158       .  T
C1070      N1075   1.157       .  T
C1071      N1073   1.158       .  T
C1072      N1074   1.157       .  T
C1077      C1078   1.419       .  A
C1077      C1082   1.442       .  A
C1078      C1079   1.392       .  A
C1078      C1083   1.440       .  S
C1079      C1080   1.394       .  A
C1079      C1086   1.449       .  S
C1080      C1081   1.407       .  A
C1081      C1082   1.412       .  A
C1081      C1084   1.459       .  S
C1082      C1085   1.446       .  S
C1083      N1090   1.154       .  T
C1084      N1089   1.157       .  T
C1085      N1087   1.156       .  T
C1086      N1088   1.157       .  T
C1091      C1092   1.445       .  A
C1091      C1096   1.441       .  A
C1092      C1093   1.408       .  A
C1092      C1097   1.454       .  S
C1093      C1094   1.405       .  A
C1093      C1100   1.454       .  S
C1094      C1095   1.408       .  A
C1095      C1096   1.423       .  A
C1095      C1098   1.452       .  S
C1096      C1099   1.449       .  S
C1097      N1104   1.158       .  T
C1098      N1103   1.157   1_556  T
C1099      N1101   1.158       .  T
C1100      N1102   1.156       .  T
C1105      C1106   1.452       .  A
C1105      C1110   1.441       .  A
C1106      C1107   1.410       .  A
C1106      C1111   1.453       .  S
C1107      C1108   1.400       .  A
C1107      C1114   1.455       .  S
C1108      C1109   1.401       .  A
C1109      C1110   1.411       .  A
C1109      C1112   1.451       .  S
C1110      C1113   1.452       .  S
C1111      N1118   1.158       .  T
C1112      N1117   1.157       .  T
C1113      N1115   1.158       .  T
C1114      N1116   1.157       .  T
C1119      C1120   1.395       .  A
C1119      C1124   1.402       .  A
C1120      C1121   1.390       .  A
C1120      C1125   1.452       .  S
C1121      C1122   1.442       .  A
C1121      C1128   1.454       .  S
C1122      C1123   1.445       .  A
C1123      C1124   1.415       .  A
C1123      C1126   1.449       .  S
C1124      C1127   1.453       .  S
C1125      N1132   1.158       .  T
C1126      N1131   1.158       .  T
C1127      N1129   1.157   1_556  T
C1128      N1130   1.158       .  T
C1133      C1134   1.403       .  A
C1133      C1138   1.405       .  A
C1134      C1135   1.405       .  A
C1134      C1139   1.451       .  S
C1135      C1136   1.433       .  A
C1135      C1142   1.453       .  S
C1136      C1137   1.425       .  A
C1137      C1138   1.416       .  A
C1137      C1140   1.439       .  S
C1138      C1141   1.452       .  S
C1139      N1146   1.157       .  T
C1140      N1145   1.157       .  T
C1141      N1143   1.157       .  T
C1142      N1144   1.157       .  T
C1147      C1148   1.388       .  A
C1147      C1152   1.418       .  A
C1148      C1149   1.392       .  A
C1148      C1153   1.444       .  S
C1149      C1150   1.422       .  A
C1149      C1156   1.427       .  S
C1150      C1151   1.441       .  A
C1151      C1152   1.426       .  A
C1151      C1154   1.445       .  S
C1152      C1155   1.448       .  S
C1153      N1160   1.157       .  T
C1154      N1159   1.156       .  T
C1155      N1157   1.156       .  T
C1156      N1158   1.151   1_556  T
C1161      C1162   1.403       .  A
C1161      C1166   1.409       .  A
C1162      C1163   1.407       .  A
C1162      C1167   1.445       .  S
C1163      C1164   1.433       .  A
C1163      C1170   1.437       .  S
C1164      C1165   1.446       .  A
C1165      C1166   1.419       .  A
C1165      C1168   1.445       .  S
C1166      C1169   1.455       .  S
C1167      N1174   1.157       .  T
C1168      N1173   1.157       .  T
C1169      N1171   1.158       .  T
C1170      N1172   1.155       .  T
C1175      C1176   1.450       .  A
C1175      C1180   1.446       .  A
C1176      C1177   1.423       .  A
C1176      C1181   1.453       .  S
C1177      C1178   1.403       .  A
C1177      C1184   1.453       .  S
C1178      C1179   1.401       .  A
C1179      C1180   1.409       .  A
C1179      C1182   1.452       .  S
C1180      C1183   1.452       .  S
C1181      N1188   1.158       .  T
C1182      N1187   1.156       .  T
C1183      N1185   1.158       .  T
C1184      N1186   1.157       .  T
C1189      C1190   1.412       .  A
C1189      C1194   1.437       .  A
C1190      C1191   1.405       .  A
C1190      C1195   1.440       .  S
C1191      C1192   1.407       .  A
C1191      C1198   1.448       .  S
C1192      C1193   1.413       .  A
C1193      C1194   1.422       .  A
C1193      C1196   1.452       .  S
C1194      C1197   1.449       .  S
C1195      N1202   1.154       .  T
C1196      N1201   1.157       .  T
C1197      N1199   1.156       .  T
C1198      N1200   1.157       .  T
C1203      C1204   1.432       .  A
C1203      C1208   1.437       .  A
C1204      C1205   1.415       .  A
C1204      C1209   1.451       .  S
C1205      C1206   1.411       .  A
C1205      C1212   1.449       .  S
C1206      C1207   1.416       .  A
C1207      C1208   1.412       .  A
C1207      C1210   1.447       .  S
C1208      C1211   1.458       .  S
C1209      N1216   1.157       .  T
C1210      N1215   1.156       .  T
C1211      N1213   1.158       .  T
C1212      N1214   1.157       .  T
C1217      C1218   1.420       .  A
C1217      C1222   1.409       .  A
C1218      C1219   1.422       .  A
C1218      C1223   1.449       .  S
C1219      C1220   1.429       .  A
C1219      C1226   1.452       .  S
C1220      C1221   1.420       .  A
C1221      C1222   1.401       .  A
C1221      C1224   1.443       .  S
C1222      C1225   1.453       .  S
C1223      N1230   1.157       .  T
C1224      N1229   1.158       .  T
C1225      N1227   1.157       .  T
C1226      N1228   1.157       .  T
C1231      C1232   1.456       .  A
C1231      C1236   1.449       .  A
C1232      C1233   1.418       .  A
C1232      C1237   1.447       .  S
C1233      C1234   1.398       .  A
C1233      C1240   1.459       .  S
C1234      C1235   1.396       .  A
C1235      C1236   1.413       .  A
C1235      C1238   1.455       .  S
C1236      C1239   1.447       .  S
C1237      N1244   1.158       .  T
C1238      N1243   1.157       .  T
C1239      N1241   1.158       .  T
C1240      N1242   1.158       .  T
C1245      C1246   1.399       .  A
C1245      C1250   1.401       .  A
C1246      C1247   1.416       .  A
C1246      C1251   1.456       .  S
C1247      C1248   1.449       .  A
C1247      C1254   1.441       .  S
C1248      C1249   1.436       .  A
C1249      C1250   1.409       .  A
C1249      C1252   1.444       .  S
C1250      C1253   1.448       .  S
C1251      N1258   1.157       .  T
C1252      N1257   1.157       .  T
C1253      N1255   1.157       .  T
C1254      N1256   1.156       .  T
C1259      C1260   1.398       .  A
C1259      C1264   1.394       .  A
C1260      C1261   1.415       .  A
C1260      C1265   1.453       .  S
C1261      C1262   1.450       .  A
C1261      C1268   1.445       .  S
C1262      C1263   1.446       .  A
C1263      C1264   1.409       .  A
C1263      C1266   1.446       .  S
C1264      C1267   1.451       .  S
C1265      N1272   1.157       .  T
C1266      N1271   1.158       .  T
C1267      N1269   1.157       .  T
C1268      N1270   1.158       .  T
C1273      C1274   1.398       .  A
C1273      C1278   1.402       .  A
C1274      C1275   1.400       .  A
C1274      C1279   1.450       .  S
C1275      C1276   1.430       .  A
C1275      C1282   1.451       .  S
C1276      C1277   1.435       .  A
C1277      C1278   1.412       .  A
C1277      C1280   1.445       .  S
C1278      C1281   1.453       .  S
C1279      N1286   1.157       .  T
C1280      N1285   1.158       .  T
C1281      N1283   1.157       .  T
C1282      N1284   1.157       .  T
C1287      C1288   1.402       .  A
C1287      C1292   1.396       .  A
C1288      C1289   1.423       .  A
C1288      C1293   1.458       .  S
C1289      C1290   1.471       .  A
C1289      C1296   1.444       .  S
C1290      C1291   1.410       .  A
C1291      C1292   1.397       .  A
C1291      C1294   1.435       .  S
C1292      C1295   1.440       .  S
C1293      N1300   1.157       .  T
C1294      N1299   1.153   1_455  T
C1295      N1297   1.157       .  T
C1296      N1298   1.158       .  T
C1301      C1302   1.392       .  A
C1301      C1306   1.387       .  A
C1302      C1303   1.417       .  A
C1302      C1307   1.462       .  S
C1303      C1304   1.475       .  A
C1303      C1310   1.449       .  S
C1304      C1305   1.446       .  A
C1305      C1306   1.398       .  A
C1305      C1308   1.438       .  S
C1306      C1309   1.451       .  S
C1307      N1314   1.158       .  T
C1308      N1313   1.158   1_565  T
C1309      N1311   1.157       .  T
C1310      N1312   1.158       .  T
C1315      C1316   1.403       .  A
C1315      C1320   1.408       .  A
C1316      C1317   1.409       .  A
C1316      C1321   1.449       .  S
C1317      C1318   1.430       .  A
C1317      C1324   1.451       .  S
C1318      C1319   1.435       .  A
C1319      C1320   1.418       .  A
C1319      C1322   1.447       .  S
C1320      C1323   1.453       .  S
C1321      N1328   1.157       .  T
C1322      N1327   1.159       .  T
C1323      N1325   1.157       .  T
C1324      N1326   1.158       .  T
C1329      C1330   1.419       .  A
C1329      C1334   1.408       .  A
C1330      C1331   1.422       .  A
C1330      C1335   1.448       .  S
C1331      C1332   1.426       .  A
C1331      C1338   1.451       .  S
C1332      C1333   1.421       .  A
C1333      C1334   1.409       .  A
C1333      C1336   1.443       .  S
C1334      C1337   1.450       .  S
C1335      N1342   1.157       .  T
C1336      N1341   1.154       .  T
C1337      N1339   1.157       .  T
C1338      N1340   1.157       .  T
C1343      C1344   1.405       .  A
C1343      C1348   1.408       .  A
C1344      C1345   1.400       .  A
C1344      C1349   1.455       .  S
C1345      C1346   1.439       .  A
C1345      C1352   1.454       .  S
C1346      C1347   1.439       .  A
C1347      C1348   1.415       .  A
C1347      C1350   1.451       .  S
C1348      C1351   1.451       .  S
C1349      N1356   1.157       .  T
C1350      N1355   1.158       .  T
C1351      N1353   1.157       .  T
C1352      N1354   1.158       .  T
C1357      C1358   1.442       .  A
C1357      C1362   1.445       .  A
C1358      C1359   1.405       .  A
C1358      C1363   1.446       .  S
C1359      C1360   1.399       .  A
C1359      C1366   1.455       .  S
C1360      C1361   1.395       .  A
C1361      C1362   1.406       .  A
C1361      C1364   1.453       .  S
C1362      C1365   1.444       .  S
C1363      N1370   1.157       .  T
C1364      N1369   1.157       .  T
C1365      N1367   1.158       .  T
C1366      N1368   1.157       .  T
C1371      C1372   1.414       .  A
C1371      C1376   1.398       .  A
C1372      C1373   1.423       .  A
C1372      C1377   1.450       .  S
C1373      C1374   1.444       .  A
C1373      C1380   1.446       .  S
C1374      C1375   1.430       .  A
C1375      C1376   1.402       .  A
C1375      C1378   1.434       .  S
C1376      C1379   1.450       .  S
C1377      N1384   1.156       .  T
C1378      N1383   1.153       .  T
C1379      N1381   1.157       .  T
C1380      N1382   1.157       .  T
C1385      C1386   1.417       .  A
C1385      C1390   1.405       .  A
C1386      C1387   1.415       .  A
C1386      C1391   1.451       .  S
C1387      C1388   1.423       .  A
C1387      C1394   1.450       .  S
C1388      C1389   1.419       .  A
C1389      C1390   1.399       .  A
C1389      C1392   1.446       .  S
C1390      C1393   1.449       .  S
C1391      N1398   1.157       .  T
C1392      N1397   1.156       .  T
C1393      N1395   1.157       .  T
C1394      N1396   1.157       .  T
C1399      C1400   1.403       .  A
C1399      C1404   1.398       .  A
C1400      C1401   1.400       .  A
C1400      C1405   1.460       .  S
C1401      C1402   1.444       .  A
C1401      C1408   1.453       .  S
C1402      C1403   1.445       .  A
C1403      C1404   1.415       .  A
C1403      C1406   1.449       .  S
C1404      C1407   1.452       .  S
C1405      N1412   1.157       .  T
C1406      N1411   1.158       .  T
C1407      N1409   1.157   1_556  T
C1408      N1410   1.158       .  T
C1413      C1414   1.441       .  A
C1413      C1418   1.426       .  A
C1414      C1415   1.422       .  A
C1414      C1419   1.441       .  S
C1415      C1416   1.416       .  A
C1415      C1422   1.453       .  S
C1416      C1417   1.402       .  A
C1417      C1418   1.409       .  A
C1417      C1420   1.441       .  S
C1418      C1421   1.434       .  S
C1419      N1426   1.157       .  T
C1420      N1425   1.157       .  T
C1421      N1423   1.155       .  T
C1422      N1424   1.157       .  T
C1427      C1428   1.414       .  A
C1427      C1432   1.404       .  A
C1428      C1429   1.420       .  A
C1428      C1433   1.452       .  S
C1429      C1430   1.440       .  A
C1429      C1436   1.455       .  S
C1430      C1431   1.425       .  A
C1431      C1432   1.406       .  A
C1431      C1434   1.447       .  S
C1432      C1435   1.451       .  S
C1433      N1440   1.157       .  T
C1434      N1439   1.156       .  T
C1435      N1437   1.157       .  T
C1436      N1438   1.157       .  T
C1441      C1442   1.403       .  A
C1441      C1446   1.400       .  A
C1442      C1443   1.417       .  A
C1442      C1447   1.454       .  S
C1443      C1444   1.440       .  A
C1443      C1450   1.448       .  S
C1444      C1445   1.449       .  A
C1445      C1446   1.408       .  A
C1445      C1448   1.450       .  S
C1446      C1449   1.459       .  S
C1447      N1454   1.157       .  T
C1448      N1453   1.159       .  T
C1449      N1451   1.158       .  T
C1450      N1452   1.158       .  T
C1455      C1456   1.410       .  A
C1455      C1460   1.400       .  A
C1456      C1457   1.422       .  A
C1456      C1461   1.449       .  S
C1457      C1458   1.439       .  A
C1457      C1464   1.449       .  S
C1458      C1459   1.441       .  A
C1459      C1460   1.401       .  A
C1459      C1462   1.452       .  S
C1460      C1463   1.453       .  S
C1461      N1468   1.157       .  T
C1462      N1467   1.158       .  T
C1463      N1465   1.157       .  T
C1464      N1466   1.157       .  T
C1469      C1470   1.440       .  A
C1469      C1474   1.440       .  A
C1470      C1471   1.421       .  A
C1470      C1475   1.448       .  S
C1471      C1472   1.408       .  A
C1471      C1478   1.449       .  S
C1472      C1473   1.397       .  A
C1473      C1474   1.398       .  A
C1473      C1476   1.449       .  S
C1474      C1477   1.451       .  S
C1475      N1482   1.157       .  T
C1476      N1481   1.157       .  T
C1477      N1479   1.158       .  T
C1478      N1480   1.157       .  T
C1483      C1484   1.448       .  A
C1483      C1488   1.444       .  A
C1484      C1485   1.413       .  A
C1484      C1489   1.450       .  S
C1485      C1486   1.401       .  A
C1485      C1492   1.451       .  S
C1486      C1487   1.407       .  A
C1487      C1488   1.423       .  A
C1487      C1490   1.449       .  S
C1488      C1491   1.454       .  S
C1489      N1496   1.158       .  T
C1490      N1495   1.157       .  T
C1491      N1493   1.158       .  T
C1492      N1494   1.157       .  T
C1497      C1498   1.403       .  A
C1497      C1502   1.403       .  A
C1498      C1499   1.419       .  A
C1498      C1503   1.452       .  S
C1499      C1500   1.448       .  A
C1499      C1506   1.448       .  S
C1500      C1501   1.445       .  A
C1501      C1502   1.413       .  A
C1501      C1504   1.452       .  S
C1502      C1505   1.453       .  S
C1503      N1510   1.157       .  T
C1504      N1509   1.158       .  T
C1505      N1507   1.157       .  T
C1506      N1508   1.158       .  T
C1511      C1512   1.440       .  A
C1511      C1516   1.447       .  A
C1512      C1513   1.415       .  A
C1512      C1517   1.450       .  S
C1513      C1514   1.405       .  A
C1513      C1520   1.453       .  S
C1514      C1515   1.407       .  A
C1515      C1516   1.410       .  A
C1515      C1518   1.454       .  S
C1516      C1519   1.454       .  S
C1517      N1524   1.158       .  T
C1518      N1523   1.158       .  T
C1519      N1521   1.158       .  T
C1520      N1522   1.157       .  T
C1525      C1526   1.449       .  A
C1525      C1530   1.436       .  A
C1526      C1527   1.405       .  A
C1526      C1531   1.451       .  S
C1527      C1528   1.402       .  A
C1527      C1534   1.458       .  S
C1528      C1529   1.414       .  A
C1529      C1530   1.424       .  A
C1529      C1532   1.449       .  S
C1530      C1533   1.450       .  S
C1531      N1538   1.158       .  T
C1532      N1537   1.157       .  T
C1533      N1535   1.157       .  T
C1534      N1536   1.158       .  T
C1539      C1540   1.402       .  A
C1539      C1544   1.408       .  A
C1540      C1541   1.405       .  A
C1540      C1545   1.447       .  S
C1541      C1542   1.438       .  A
C1541      C1548   1.445       .  S
C1542      C1543   1.448       .  A
C1543      C1544   1.418       .  A
C1543      C1546   1.446       .  S
C1544      C1547   1.455       .  S
C1545      N1552   1.157       .  T
C1546      N1551   1.157       .  T
C1547      N1549   1.158       .  T
C1548      N1550   1.158       .  T
C1553      C1554   1.407       .  A
C1553      C1558   1.408       .  A
C1554      C1555   1.411       .  A
C1554      C1559   1.450       .  S
C1555      C1556   1.425       .  A
C1555      C1562   1.448       .  S
C1556      C1557   1.426       .  A
C1557      C1558   1.407       .  A
C1557      C1560   1.450       .  S
C1558      C1561   1.449       .  S
C1559      N1566   1.157       .  T
C1560      N1565   1.157       .  T
C1561      N1563   1.157       .  T
C1562      N1564   1.156       .  T
C1567      C1568   1.436       .  A
C1567      C1572   1.447       .  A
C1568      C1569   1.415       .  A
C1568      C1573   1.441       .  S
C1569      C1570   1.404       .  A
C1569      C1576   1.444       .  S
C1570      C1571   1.401       .  A
C1571      C1572   1.414       .  A
C1571      C1574   1.448       .  S
C1572      C1575   1.445       .  S
C1573      N1580   1.157       .  T
C1574      N1579   1.155       .  T
C1575      N1577   1.158       .  T
C1576      N1578   1.157       .  T
C1581      C1582   1.455       .  A
C1581      C1586   1.446       .  A
C1582      C1583   1.423       .  A
C1582      C1587   1.449       .  S
C1583      C1584   1.405       .  A
C1583      C1590   1.458       .  S
C1584      C1585   1.398       .  A
C1585      C1586   1.415       .  A
C1585      C1588   1.455       .  S
C1586      C1589   1.446       .  S
C1587      N1594   1.159       .  T
C1588      N1593   1.157       .  T
C1589      N1591   1.158       .  T
C1590      N1592   1.158       .  T
C1595      C1596   1.434       .  A
C1595      C1600   1.443       .  A
C1596      C1597   1.405       .  A
C1596      C1601   1.450       .  S
C1597      C1598   1.403       .  A
C1597      C1604   1.455       .  S
C1598      C1599   1.411       .  A
C1599      C1600   1.424       .  A
C1599      C1602   1.452       .  S
C1600      C1603   1.456       .  S
C1601      N1608   1.157       .  T
C1602      N1607   1.157       .  T
C1603      N1605   1.158       .  T
C1604      N1606   1.157       .  T
C1609      C1610   1.424       .  A
C1609      C1614   1.442       .  A
C1610      C1611   1.396       .  A
C1610      C1615   1.442       .  S
C1611      C1612   1.394       .  A
C1611      C1618   1.440       .  S
C1612      C1613   1.422       .  A
C1613      C1614   1.426       .  A
C1613      C1616   1.450       .  S
C1614      C1617   1.446       .  S
C1615      N1622   1.157       .  T
C1616      N1621   1.157       .  T
C1617      N1619   1.157       .  T
C1618      N1620   1.158       .  T
C1623      C1624   1.432       .  A
C1623      C1628   1.424       .  A
C1624      C1625   1.408       .  A
C1624      C1629   1.444       .  S
C1625      C1626   1.402       .  A
C1625      C1632   1.453       .  S
C1626      C1627   1.409       .  A
C1627      C1628   1.413       .  A
C1627      C1630   1.447       .  S
C1628      C1631   1.448       .  S
C1629      N1636   1.158       .  T
C1630      N1635   1.157       .  T
C1631      N1633   1.157       .  T
C1632      N1634   1.157       .  T
C1637      C1638   1.461       .  A
C1637      C1642   1.410       .  A
C1638      C1639   1.412       .  A
C1638      C1643   1.449       .  S
C1639      C1640   1.399       .  A
C1639      C1646   1.451       .  S
C1640      C1641   1.394       .  A
C1641      C1642   1.395       .  A
C1641      C1644   1.441       .  S
C1642      C1645   1.430       .  S
C1643      N1650   1.158       .  T
C1644      N1649   1.157       .  T
C1645      N1647   1.153       .  T
C1646      N1648   1.157       .  T
C1651      C1652   1.411       .  A
C1651      C1656   1.409       .  A
C1652      C1653   1.399       .  A
C1652      C1657   1.453       .  S
C1653      C1654   1.429       .  A
C1653      C1660   1.455       .  S
C1654      C1655   1.438       .  A
C1655      C1656   1.413       .  A
C1655      C1658   1.455       .  S
C1656      C1659   1.453       .  S
C1657      N1664   1.157       .  T
C1658      N1663   1.157       .  T
C1659      N1661   1.157       .  T
C1660      N1662   1.158       .  T
C1665      C1666   1.448       .  A
C1665      C1670   1.431       .  A
C1666      C1667   1.407       .  A
C1666      C1671   1.452       .  S
C1667      C1668   1.403       .  A
C1667      C1674   1.456       .  S
C1668      C1669   1.412       .  A
C1669      C1670   1.416       .  A
C1669      C1672   1.448       .  S
C1670      C1673   1.452       .  S
C1671      N1678   1.158       .  T
C1672      N1677   1.157       .  T
C1673      N1675   1.157       .  T
C1674      N1676   1.157       .  T
C1679      C1680   1.417       .  A
C1679      C1684   1.449       .  A
C1680      C1681   1.396       .  A
C1680      C1685   1.438       .  S
C1681      C1682   1.406       .  A
C1681      C1688   1.440       .  S
C1682      C1683   1.412       .  A
C1683      C1684   1.421       .  A
C1683      C1686   1.445       .  S
C1684      C1687   1.445       .  S
C1685      N1692   1.153       .  T
C1686      N1691   1.157       .  T
C1687      N1689   1.158       .  T
C1688      N1690   1.157       .  T
C1693      C1694   1.437       .  A
C1693      C1698   1.443       .  A
C1694      C1695   1.407       .  A
C1694      C1699   1.451       .  S
C1695      C1696   1.407       .  A
C1695      C1702   1.456       .  S
C1696      C1697   1.405       .  A
C1697      C1698   1.413       .  A
C1697      C1700   1.454       .  S
C1698      C1701   1.453       .  S
C1699      N1706   1.158       .  T
C1700      N1705   1.157       .  T
C1701      N1703   1.158       .  T
C1702      N1704   1.157       .  T
C1707      C1708   1.403       .  A
C1707      C1712   1.393       .  A
C1708      C1709   1.415       .  A
C1708      C1713   1.456       .  S
C1709      C1710   1.445       .  A
C1709      C1716   1.446       .  S
C1710      C1711   1.452       .  A
C1711      C1712   1.423       .  A
C1711      C1714   1.441       .  S
C1712      C1715   1.456       .  S
C1713      N1720   1.156       .  T
C1714      N1719   1.159       .  T
C1715      N1717   1.157       .  T
C1716      N1718   1.158       .  T
C1721      C1722   1.425       .  A
C1721      C1726   1.424       .  A
C1722      C1723   1.410       .  A
C1722      C1727   1.445       .  S
C1723      C1724   1.408       .  A
C1723      C1730   1.449       .  S
C1724      C1725   1.407       .  A
C1725      C1726   1.406       .  A
C1725      C1728   1.449       .  S
C1726      C1729   1.451       .  S
C1727      N1734   1.156       .  T
C1728      N1733   1.157       .  T
C1729      N1731   1.157       .  T
C1730      N1732   1.157       .  T
C1735      C1736   1.429       .  A
C1735      C1740   1.448       .  A
C1736      C1737   1.384       .  A
C1736      C1741   1.441       .  S
C1737      C1738   1.388       .  A
C1737      C1744   1.443       .  S
C1738      C1739   1.407       .  A
C1739      C1740   1.413       .  A
C1739      C1742   1.454       .  S
C1740      C1743   1.443       .  S
C1741      N1748   1.157       .  T
C1742      N1747   1.157       .  T
C1743      N1745   1.157       .  T
C1744      N1746   1.157       .  T
