geometry optimzed in LAMMPS
_audit_creation_date              2020-12-01 
_audit_creation_method            'lammps2cif' 
_symmetry_space_group_name_H-M    'P1' 
_symmetry_Int_Tables_number       1 
_symmetry_cell_setting            triclinic 
loop_ 
_symmetry_equiv_pos_as_xyz 
  x,y,z 
_cell_length_a                    39.80470603 
_cell_length_b                    25.155379659728677 
_cell_length_c                    38.78588798657871 
_cell_angle_alpha                 89.91684365976617 
_cell_angle_beta                  89.47418786816627 
_cell_angle_gamma                 89.99225663381262 
loop_ 
_atom_site_label 
_atom_site_type_symbol 
_atom_site_fract_x 
_atom_site_fract_y 
_atom_site_fract_z 
_atom_site_charge 
N1          N  0.25630938  0.49966191  0.94728156    -0.36500
N2          N  0.25316042  0.58223420  0.00023725    -0.57000
N3          N  0.25019339  0.49976573  0.05323719    -0.36500
N4          N  0.25292417  0.41718372  0.00037469    -0.57000
C5          C  0.25309972  0.54310624  0.92688255     0.27100
C6          C  0.25282567  0.45626887  0.92696369     0.27100
C7          C  0.25439374  0.54314246  0.07340662     0.27100
C8          C  0.25430478  0.45636358  0.07348414     0.27100
C9          C  0.25348571  0.61427400  0.97227151     0.35700
C10         C  0.25175302  0.61425941  0.02813029     0.35700
C11         C  0.25296850  0.38510624  0.97247695     0.35700
C12         C  0.25143451  0.38522254  0.02835434     0.35700
C13         C  0.24866517  0.52700462  0.89301481    -0.21700
C14         C  0.24847470  0.47245004  0.89306845    -0.21700
C15         C  0.26051568  0.52701927  0.10700417    -0.21700
C16         C  0.26047128  0.47244709  0.10705058    -0.21700
C17         C  0.25238850  0.66709028  0.98248764    -0.22800
C18         C  0.25121733  0.66707433  0.01782488    -0.22800
C19         C  0.25163652  0.33232760  0.98282633    -0.22800
C20         C  0.25061217  0.33240475  0.01817474    -0.22800
C21         C  0.25347142  0.59697061  0.93761689    -0.18200
C22         C  0.25298006  0.40238684  0.93777236    -0.18200
C23         C  0.25220267  0.40255484  0.06297338    -0.18100
C24         C  0.25252629  0.59696409  0.06278410    -0.18100
H25         H  0.24527926  0.55194205  0.87054923     0.14800
H26         H  0.24491893  0.44757586  0.87064985     0.14800
H27         H  0.26484606  0.55196728  0.12923931     0.14800
H28         H  0.26475810  0.44746833  0.12932759     0.14800
H29         H  0.25221255  0.70206726  0.96620257     0.13000
H30         H  0.25039566  0.70203247  0.03404947     0.13000
H31         H  0.25119266  0.29734502  0.96662191     0.13000
H32         H  0.24964106  0.29748113  0.03448909     0.13000
H33         H  0.26256714  0.49963432  0.97311966     0.26300
H34         H  0.24201973  0.49977914  0.02795147     0.26300
In35       In  0.25021687  0.22067838  0.19064233     1.36900
C36         C  0.25086057  0.29082504  0.13960967     0.77700
O37         O  0.19395532  0.21821494  0.18873318    -0.60700
O38         O  0.21681062  0.25233163  0.23268093    -0.51600
C39         C  0.25061942  0.11488279  0.18786390     0.70400
O40         O  0.25367751  0.14344124  0.16124267    -0.46500
C41         C  0.30970880  0.23572279  0.21944271     0.75100
O42         O  0.24913667  0.24148579  0.13430440    -0.58400
O43         O  0.28243880  0.24257373  0.23563776    -0.48400
O44         O  0.25214908  0.30435241  0.17080407    -0.54800
C45         C  0.18990565  0.23980060  0.21780833     0.85300
O46         O  0.24734339  0.14063328  0.21551348    -0.56700
O47         O  0.30637708  0.22191404  0.18844872    -0.60000
In48       In  0.25132378  0.77936402  0.18979199     1.36900
C49         C  0.25234720  0.70883440  0.13911870     0.77700
O50         O  0.30762321  0.78133661  0.18809694    -0.60700
O51         O  0.28375159  0.75544516  0.23422213    -0.51600
C52         C  0.25067621  0.88519525  0.18721186     0.70400
O53         O  0.25450219  0.85700862  0.16056111    -0.46500
C54         C  0.19091202  0.76036461  0.21701759     0.75100
O55         O  0.25135446  0.75817830  0.13355394    -0.58400
O56         O  0.21786290  0.74930899  0.23233571    -0.48400
O57         O  0.25285547  0.69547843  0.17039834    -0.54800
C58         C  0.31100285  0.76508076  0.21860565     0.85300
O59         O  0.24700479  0.85904985  0.21470309    -0.56700
O60         O  0.19495042  0.78023153  0.18736956    -0.60000
In61       In  0.99910042  0.28026589  0.30986385     1.36900
C62         C  0.99918748  0.20868794  0.36034609     0.77700
O63         O  0.44287924  0.27984029  0.31211103    -0.60700
O64         O  0.46670669  0.25649004  0.26540487    -0.51600
C65         C  0.99862903  0.38568001  0.31295065     0.70400
O66         O  0.99988939  0.35713197  0.33972110    -0.46500
C67         C  0.05936216  0.26690510  0.28122348     0.75100
O68         O  0.49619860  0.25778059  0.36601113    -0.58400
O69         O  0.03269983  0.25064709  0.26741240    -0.48400
O70         O  0.00223468  0.19611482  0.32907333    -0.54800
C71         C  0.43946913  0.26438746  0.28145222     0.85300
O72         O  0.49747493  0.36005839  0.28511297    -0.56700
O73         O  0.05516347  0.28892163  0.31014335    -0.60000
In74       In  0.50005503  0.72046223  0.31007721     1.36900
C75         C  0.50047112  0.79029645  0.36137548     0.77700
O76         O  0.05636312  0.71488027  0.31085270    -0.60700
O77         O  0.03338628  0.74732330  0.26643344    -0.51600
C78         C  0.99908553  0.61491702  0.31290497     0.70400
O79         O  0.49989394  0.64324490  0.33971473    -0.46500
C80         C  0.44045298  0.73802383  0.28181899     0.75100
O81         O  0.99823746  0.74097345  0.36653279    -0.58400
O82         O  0.46774470  0.74883051  0.26662169    -0.48400
O83         O  0.50247685  0.80399613  0.33020191    -0.54800
C84         C  0.06031109  0.73410747  0.28103530     0.85300
O85         O  0.99870328  0.64078877  0.28508881    -0.56700
O86         O  0.44375274  0.71921082  0.31172763    -0.60000
N87         N  0.99609333  0.00021782  0.55307289    -0.36500
N88         N  0.99929665  0.08228245  0.49964493    -0.57000
N89         N  0.00260718  0.99930279  0.44720556    -0.36500
N90         N  0.00015805  0.91725971  0.50051412    -0.57000
C91         C  0.99960847  0.04386860  0.57318665     0.27100
C92         C  0.99982116  0.95702442  0.57364395     0.27100
C93         C  0.99784081  0.04241208  0.42678921     0.27100
C94         C  0.99849419  0.95561288  0.42725459     0.27100
C95         C  0.99849425  0.11459532  0.52742717     0.35700
C96         C  0.00027359  0.11407014  0.47154429     0.35700
C97         C  0.99942200  0.88545012  0.52859150     0.35700
C98         C  0.00171613  0.88495833  0.47275296     0.35700
C99         C  0.00464545  0.02809963  0.60705625    -0.21700
C100        C  0.00474646  0.97352445  0.60734684    -0.21700
C101        C  0.99128383  0.02581685  0.39342597    -0.21700
C102        C  0.99170283  0.97125788  0.39371473    -0.21700
C103        C  0.99892378  0.16732151  0.51688868    -0.22800
C104        C  0.00013269  0.16698417  0.48154287    -0.22800
C105        C  0.00044522  0.83253813  0.51858197    -0.22800
C106        C  0.00203436  0.83223823  0.48326198    -0.22800
C107        C  0.99858772  0.09763947  0.56219517    -0.18200
C108        C  0.99927320  0.90304205  0.56317557    -0.18200
C109        C  0.00092867  0.90190445  0.43802861    -0.18100
C110        C  0.99956324  0.09642487  0.43697805    -0.18100
H111        H  0.00839621  0.05327765  0.62929972     0.14800
H112        H  0.00860105  0.94883410  0.62984665     0.14800
H113        H  0.98639040  0.05045314  0.37112716     0.14800
H114        H  0.98718161  0.94598560  0.37167660     0.14800
H115        H  0.99859640  0.20245476  0.53296704     0.13000
H116        H  0.00044033  0.20179289  0.46510593     0.13000
H117        H  0.00031464  0.79769880  0.53499466     0.13000
H118        H  0.00284125  0.79713237  0.46717287     0.13000
H119        H  0.98923636  0.99991217  0.52744247     0.26300
H120        H  0.01110087  0.99969559  0.47234311     0.26300
In121      In  0.24952747  0.22095960  0.80995633     1.36900
C122        C  0.24991559  0.29101667  0.86111455     0.77700
O123        O  0.30580990  0.21774050  0.81206381    -0.60700
O124        O  0.28319220  0.25059383  0.76751472    -0.51600
C125        C  0.24966276  0.11513042  0.81241092     0.72400
O126        O  0.24546893  0.14336839  0.83899831    -0.46500
C127        C  0.18982242  0.23531396  0.78076719     0.75100
O128        O  0.25231960  0.24171082  0.86624271    -0.58400
O129        O  0.21710614  0.24724434  0.76586587    -0.48400
O130        O  0.24703241  0.30461482  0.83004146    -0.54800
C131        C  0.31000606  0.23805453  0.78260579     0.85300
O132        O  0.25380074  0.14123749  0.78495030    -0.56700
O133        O  0.19317408  0.21704196  0.81082969    -0.60000
In134      In  0.24871645  0.77945225  0.81036024     1.36900
C135        C  0.24940595  0.70914580  0.86140905     0.77700
O136        O  0.19239696  0.78456296  0.81147956    -0.60700
O137        O  0.21598886  0.75103216  0.76735325    -0.51600
C138        C  0.24930128  0.88528066  0.81265413     0.70400
O139        O  0.24586719  0.85706752  0.83941139    -0.46500
C140        C  0.30884106  0.76188117  0.78228027     0.75100
O141        O  0.25161375  0.75843097  0.86665329    -0.58400
O142        O  0.28183288  0.75167792  0.76686282    -0.48400
O143        O  0.24637054  0.69579832  0.83034600    -0.54800
C144        C  0.18885386  0.76429201  0.78201727     0.85300
O145        O  0.25242401  0.85914816  0.78512184    -0.56700
O146        O  0.30495678  0.78028520  0.81226751    -0.60000
In147      In  0.50016693  0.27972400  0.68959202     1.36900
C148        C  0.49943918  0.20989528  0.63838688     0.77700
O149        O  0.05656992  0.28069537  0.68727179    -0.60700
O150        O  0.03295053  0.24995941  0.73227256    -0.51600
C151        C  0.99986254  0.38539759  0.68719319     0.70400
O152        O  0.49602925  0.35729506  0.66058222    -0.46500
C153        C  0.44047379  0.26521439  0.71919331     0.75100
O154        O  0.00402296  0.25885279  0.63327529    -0.58400
O155        O  0.46760005  0.25383693  0.73405532    -0.48400
O156        O  0.49520494  0.19665276  0.66942219    -0.54800
C157        C  0.06014450  0.26118052  0.71698459     0.85300
O158        O  0.00386980  0.35926350  0.71455846    -0.56700
O159        O  0.44403258  0.28347964  0.68909263    -0.60000
In160      In  0.99972437  0.72012221  0.69039030     1.36900
C161        C  0.00069087  0.79062835  0.63941915     0.77700
O162        O  0.44346069  0.71623069  0.68912895    -0.60700
O163        O  0.46647696  0.74583571  0.73430841    -0.51600
C164        C  0.99952604  0.61467857  0.68777642     0.70400
O165        O  0.99612250  0.64306550  0.66115920    -0.46500
C166        C  0.05938239  0.73671220  0.71861443     0.75100
O167        O  0.50397847  0.74149522  0.63409300    -0.58400
O168        O  0.03220701  0.75051197  0.73300453    -0.48400
O169        O  0.99707373  0.80368323  0.67052169    -0.54800
C170        C  0.43952356  0.73434014  0.71918885     0.85300
O171        O  0.50292049  0.64045671  0.71535027    -0.56700
O172        O  0.05594285  0.71536708  0.68946239    -0.60000
C173        C  0.99238453  0.47246488  0.65659596    -0.13200
C174        C  0.99975941  0.44403570  0.68679297     0.08900
C175        C  0.50704797  0.47211544  0.71706742    -0.13200
C176        C  0.50698116  0.52753537  0.71722122    -0.13200
C177        C  0.99962219  0.55607354  0.68710064     0.08900
C178        C  0.99233811  0.52812759  0.65674529    -0.13200
H179        H  0.98658033  0.45170161  0.63294963     0.12900
H180        H  0.51288063  0.45122089  0.74070483     0.12900
H181        H  0.51277065  0.54806423  0.74096558     0.12900
H182        H  0.98649417  0.54927268  0.63321054     0.12900
C183        C  0.12637922  0.77510589  0.78255421    -0.13200
C184        C  0.15571141  0.75710908  0.76588296     0.08900
C185        C  0.15314554  0.73268567  0.73347895    -0.13200
C186        C  0.12181637  0.72626094  0.71805850    -0.13200
C187        C  0.09248645  0.74424586  0.73472460     0.08900
C188        C  0.09503912  0.76871173  0.76711664    -0.13200
H189        H  0.12766202  0.79421475  0.80751063     0.12900
H190        H  0.17536202  0.71848181  0.72005146     0.12900
H191        H  0.12054441  0.70709430  0.69311864     0.12900
H192        H  0.07280746  0.78285569  0.78054583     0.12900
C193        C  0.37151721  0.76501753  0.78498868    -0.13200
C194        C  0.34226224  0.75382343  0.76637019     0.08900
C195        C  0.34521753  0.73599746  0.73219014    -0.13200
C196        C  0.37686695  0.72969663  0.71684491    -0.13200
C197        C  0.40611741  0.74114919  0.73539852     0.08900
C198        C  0.40316835  0.75874164  0.76963642    -0.13200
H199        H  0.36993810  0.77883365  0.81138808     0.12900
H200        H  0.32305733  0.72722132  0.71723775     0.12900
H201        H  0.37844164  0.71601876  0.69041638     0.12900
H202        H  0.42532689  0.76766533  0.78455591     0.12900
C203        C  0.15410087  0.26486145  0.73148278    -0.13200
C204        C  0.15669384  0.24165787  0.76431367     0.08900
C205        C  0.12735422  0.22400867  0.78117847    -0.13200
C206        C  0.09600180  0.22977079  0.76561622    -0.13200
C207        C  0.09338667  0.25327021  0.73287785     0.08900
C208        C  0.12273991  0.27063103  0.71591820    -0.13200
H209        H  0.17630722  0.27876357  0.71788291     0.12900
H210        H  0.12863048  0.20573916  0.80643384     0.12900
H211        H  0.07378464  0.21606194  0.77928460     0.12900
H212        H  0.12143734  0.28909170  0.69072318     0.12900
C213        C  0.37274697  0.23350160  0.78518783    -0.13200
C214        C  0.34348797  0.24563052  0.76676974     0.08900
C215        C  0.34639959  0.26398733  0.73269223    -0.13200
C216        C  0.37796778  0.27012553  0.71725525    -0.13200
C217        C  0.40723085  0.25809477  0.73561787     0.08900
C218        C  0.40438593  0.23973641  0.76973693    -0.13200
H219        H  0.37117195  0.21916305  0.81149679     0.12900
H220        H  0.32424106  0.27334089  0.71786607     0.12900
H221        H  0.37946091  0.28428179  0.69090265     0.12900
H222        H  0.42658831  0.23025685  0.78446727     0.12900
C223        C  0.24715933  0.02808886  0.84417689    -0.13200
C224        C  0.24967646  0.05635389  0.81297870     0.08900
C225        C  0.25218747  0.02793565  0.78192491    -0.13200
C226        C  0.25211585  0.97243860  0.78198651    -0.13200
C227        C  0.24955552  0.94405781  0.81310539     0.08900
C228        C  0.24712542  0.97236371  0.84424199    -0.13200
H229        H  0.24523034  0.04903697  0.86848645     0.12900
H230        H  0.25412576  0.04862679  0.75747903     0.12900
H231        H  0.25400301  0.95172034  0.75758520     0.12900
H232        H  0.24515203  0.95144948  0.86859937     0.12900
C233        C  0.00024147  0.86266669  0.58990037    -0.13100
C234        C  0.00076108  0.82918036  0.61215524    -0.14700
C235        C  0.49920364  0.17170153  0.61096588    -0.13100
C236        C  0.49900122  0.13842011  0.58862325    -0.14700
C237        C  0.50071737  0.82829056  0.38893870    -0.13100
C238        C  0.50084740  0.86125932  0.41149009    -0.14700
C239        C  0.99917727  0.13660231  0.41002003    -0.13100
C240        C  0.99913024  0.16977724  0.38749878    -0.14700
C241        C  0.99857553  0.47239991  0.34488003    -0.13200
C242        C  0.99862101  0.44428621  0.31360867     0.08900
C243        C  0.49871968  0.47265867  0.28242385    -0.13200
C244        C  0.49878851  0.52803626  0.28239959    -0.13200
C245        C  0.99876611  0.55630493  0.31356116     0.08900
C246        C  0.99862523  0.52808515  0.34485567    -0.13200
H247        H  0.99849671  0.45138693  0.36926962     0.12900
H248        H  0.49880664  0.45202915  0.25793039     0.12900
H249        H  0.49892798  0.54874326  0.25789444     0.12900
H250        H  0.99860368  0.54902161  0.36923264     0.12900
C251        C  0.15457071  0.73367464  0.26703563    -0.13200
C252        C  0.15743597  0.75189392  0.23288432     0.08900
C253        C  0.12809135  0.76360271  0.21451292    -0.13200
C254        C  0.09649367  0.75780859  0.23016417    -0.13200
C255        C  0.09366862  0.74016511  0.26445652     0.08900
C256        C  0.12299450  0.72785795  0.28266936    -0.13200
H257        H  0.17677670  0.72445345  0.28182182     0.12900
H258        H  0.12956868  0.77764244  0.18813291     0.12900
H259        H  0.07427477  0.76724498  0.21545207     0.12900
H260        H  0.12154559  0.71404406  0.30909996     0.12900
C261        C  0.34646012  0.74014282  0.26888102    -0.13200
C262        C  0.34411986  0.75831136  0.23475495     0.08900
C263        C  0.37367339  0.77043062  0.21630112    -0.13200
C264        C  0.40504188  0.76431825  0.23170059    -0.13200
C265        C  0.40737119  0.74591523  0.26579175     0.08900
C266        C  0.37781117  0.73395527  0.28425312    -0.13200
H267        H  0.32405328  0.73063335  0.28369108     0.12900
H268        H  0.37254854  0.78460736  0.18995643     0.12900
H269        H  0.42746374  0.77369226  0.21687525     0.12900
H270        H  0.37891833  0.71963618  0.31056443     0.12900
C271        C  0.15341364  0.27123774  0.26644488    -0.13200
C272        C  0.15644987  0.24865694  0.23346802     0.08900
C273        C  0.12729792  0.23308598  0.21604396    -0.13200
C274        C  0.09571093  0.23917360  0.23155709    -0.13200
C275        C  0.09271042  0.26100641  0.26474439     0.08900
C276        C  0.12181494  0.27741881  0.28193375    -0.13200
H277        H  0.17549434  0.28362098  0.28042719     0.12900
H278        H  0.12892809  0.21567314  0.19056234     0.12900
H279        H  0.07364364  0.22656388  0.21763706     0.12900
H280        H  0.12018590  0.29462611  0.30747446     0.12900
C281        C  0.40379394  0.24089621  0.23106935    -0.13200
C282        C  0.40629924  0.25655064  0.26567080     0.08900
C283        C  0.37681675  0.26513290  0.28504359    -0.13200
C284        C  0.34534692  0.25830527  0.27004315    -0.13200
C285        C  0.34285028  0.24291108  0.23539185     0.08900
C286        C  0.37233074  0.23412461  0.21606170    -0.13200
H287        H  0.42614537  0.23404914  0.21557129     0.12900
H288        H  0.37807633  0.27720916  0.31179145     0.12900
H289        H  0.32298939  0.26517171  0.28552878     0.12900
H290        H  0.37107809  0.22207649  0.18930731     0.12900
C291        C  0.25649939  0.02819965  0.15629094    -0.13200
C292        C  0.25069679  0.05616128  0.18712184     0.08900
C293        C  0.24485143  0.02749759  0.21767036    -0.13200
C294        C  0.24476261  0.97204387  0.21748204    -0.13200
C295        C  0.25056600  0.94393865  0.18675151     0.08900
C296        C  0.25644578  0.97247448  0.15610788    -0.13200
H297        H  0.26115273  0.04937777  0.13239285     0.12900
H298        H  0.24024485  0.04796306  0.24180429     0.12900
H299        H  0.24012677  0.95113671  0.24148821     0.12900
H300        H  0.26108768  0.95174925  0.13207995     0.12900
C301        C  0.25141065  0.32906152  0.11217812    -0.13100
C302        C  0.25192172  0.36217405  0.08969149    -0.14700
C303        C  0.25276495  0.63735971  0.08941072    -0.13100
C304        C  0.25270922  0.67043604  0.11185704    -0.14700
C305        C  0.25161354  0.36193663  0.91118080    -0.13100
C306        C  0.25064830  0.32908286  0.88860188    -0.14700
C307        C  0.25198670  0.63749576  0.91104609    -0.13100
C308        C  0.25063702  0.67075588  0.88870805    -0.14700
N309        N  0.75630944  0.49966205  0.94728158    -0.36500
N310        N  0.75316037  0.58223422  0.00023723    -0.57000
N311        N  0.75019345  0.49976584  0.05323732    -0.36500
N312        N  0.75292409  0.41718381  0.00037464    -0.57000
C313        C  0.75309972  0.54310639  0.92688236     0.27100
C314        C  0.75282570  0.45626896  0.92696362     0.27100
C315        C  0.75439380  0.54314257  0.07340678     0.27100
C316        C  0.75430484  0.45636365  0.07348428     0.27100
C317        C  0.75348563  0.61427403  0.97227149     0.35700
C318        C  0.75175286  0.61425942  0.02813029     0.35700
C319        C  0.75296844  0.38510627  0.97247690     0.35700
C320        C  0.75143443  0.38522267  0.02835431     0.35700
C321        C  0.74866505  0.52700486  0.89301457    -0.21700
C322        C  0.74847462  0.47245020  0.89306839    -0.21700
C323        C  0.76051597  0.52701938  0.10700443    -0.21700
C324        C  0.76047157  0.47244711  0.10705079    -0.21700
C325        C  0.75238835  0.66709031  0.98248765    -0.22800
C326        C  0.75121711  0.66707433  0.01782489    -0.22800
C327        C  0.75163644  0.33232761  0.98282629    -0.22800
C328        C  0.75061208  0.33240487  0.01817470    -0.22800
C329        C  0.75347139  0.59697062  0.93761686    -0.18200
C330        C  0.75298010  0.40238689  0.93777234    -0.18200
C331        C  0.75220266  0.40255492  0.06297340    -0.18100
C332        C  0.75252625  0.59696413  0.06278413    -0.18100
H333        H  0.74527907  0.55194225  0.87054891     0.14800
H334        H  0.74491874  0.44757582  0.87064990     0.14800
H335        H  0.76484638  0.55196739  0.12923961     0.14800
H336        H  0.76475814  0.44746816  0.12932781     0.14800
H337        H  0.75221269  0.70206730  0.96620260     0.13000
H338        H  0.75039491  0.70203244  0.03404949     0.13000
H339        H  0.75119260  0.29734499  0.96662188     0.13000
H340        H  0.74964099  0.29748131  0.03448909     0.13000
H341        H  0.76256751  0.49963450  0.97311923     0.26300
H342        H  0.74201947  0.49977927  0.02795165     0.26300
In343      In  0.75021694  0.22067843  0.19064231     1.36900
C344        C  0.75086056  0.29082521  0.13960968     0.77700
O345        O  0.69395539  0.21821484  0.18873308    -0.60700
O346        O  0.71681064  0.25233171  0.23268086    -0.51600
C347        C  0.75061930  0.11488281  0.18786393     0.70400
O348        O  0.75367753  0.14344122  0.16124273    -0.46500
C349        C  0.80970890  0.23572278  0.21944272     0.75100
O350        O  0.74913691  0.24148600  0.13430435    -0.58400
O351        O  0.78243888  0.24257372  0.23563774    -0.48400
O352        O  0.75214904  0.30435247  0.17080409    -0.54800
C353        C  0.68990569  0.23980060  0.21780823     0.85300
O354        O  0.74734342  0.14063328  0.21551352    -0.56700
O355        O  0.80637718  0.22191404  0.18844873    -0.60000
In356      In  0.75132391  0.77936404  0.18979187     1.36900
C357        C  0.75234723  0.70883437  0.13911863     0.77700
O358        O  0.80762335  0.78133657  0.18809693    -0.60700
O359        O  0.78375157  0.75544501  0.23422209    -0.51600
C360        C  0.75067629  0.88519534  0.18721178     0.70400
O361        O  0.75450220  0.85700874  0.16056099    -0.46500
C362        C  0.69091214  0.76036471  0.21701751     0.75100
O363        O  0.75135462  0.75817825  0.13355381    -0.58400
O364        O  0.71786302  0.74930906  0.23233557    -0.48400
O365        O  0.75285539  0.69547843  0.17039828    -0.54800
C366        C  0.81100285  0.76508067  0.21860566     0.85300
O367        O  0.74700504  0.85904987  0.21470300    -0.56700
O368        O  0.69495052  0.78023159  0.18736946    -0.60000
In369      In  0.49910036  0.28026594  0.30986384     1.36900
C370        C  0.49918750  0.20868795  0.36034609     0.77700
O371        O  0.94287931  0.27984007  0.31211108    -0.60700
O372        O  0.96670675  0.25649014  0.26540484    -0.51600
C373        C  0.49862899  0.38568006  0.31295062     0.70400
O374        O  0.49988917  0.35713199  0.33972108    -0.46500
C375        C  0.55936209  0.26690511  0.28122350     0.75100
O376        O  0.99619854  0.25778057  0.36601112    -0.58400
O377        O  0.53269977  0.25064715  0.26741240    -0.48400
O378        O  0.50223458  0.19611483  0.32907332    -0.54800
C379        C  0.93946920  0.26438733  0.28145225     0.85300
O380        O  0.99747491  0.36005831  0.28511307    -0.56700
O381        O  0.55516341  0.28892172  0.31014336    -0.60000
In382      In  0.00005511  0.72046221  0.31007722     1.36900
C383        C  0.00047102  0.79029651  0.36137548     0.77700
O384        O  0.55636307  0.71488000  0.31085263    -0.60700
O385        O  0.53338621  0.74732333  0.26643349    -0.51600
C386        C  0.49908540  0.61491708  0.31290506     0.70400
O387        O  0.99989394  0.64324480  0.33971468    -0.46500
C388        C  0.94045302  0.73802379  0.28181893     0.75100
O389        O  0.49823741  0.74097338  0.36653277    -0.58400
O390        O  0.96774473  0.74883051  0.26662167    -0.48400
O391        O  0.00247677  0.80399619  0.33020191    -0.54800
C392        C  0.56031105  0.73410733  0.28103524     0.85300
O393        O  0.49870305  0.64078874  0.28508887    -0.56700
O394        O  0.94375285  0.71921053  0.31172749    -0.60000
N395        N  0.49609328  0.00021780  0.55307288    -0.36500
N396        N  0.49929651  0.08228249  0.49964493    -0.57000
N397        N  0.50260743  0.99930281  0.44720654    -0.36500
N398        N  0.50015790  0.91725960  0.50051414    -0.57000
C399        C  0.49960838  0.04386864  0.57318681     0.27100
C400        C  0.49982110  0.95702445  0.57364410     0.27100
C401        C  0.49784082  0.04241207  0.42678934     0.27100
C402        C  0.49849422  0.95561290  0.42725473     0.27100
C403        C  0.49849418  0.11459529  0.52742718     0.35700
C404        C  0.50027344  0.11407020  0.47154430     0.35700
C405        C  0.49942198  0.88545009  0.52859153     0.35700
C406        C  0.50171612  0.88495821  0.47275297     0.35700
C407        C  0.50464511  0.02809987  0.60705647    -0.21700
C408        C  0.50474615  0.97352458  0.60734701    -0.21700
C409        C  0.49128387  0.02581682  0.39342623    -0.21700
C410        C  0.49170288  0.97125792  0.39371500    -0.21700
C411        C  0.49892385  0.16732150  0.51688869    -0.22800
C412        C  0.50013268  0.16698421  0.48154288    -0.22800
C413        C  0.50044521  0.83253806  0.51858194    -0.22800
C414        C  0.50203441  0.83223812  0.48326193    -0.22800
C415        C  0.49858772  0.09763939  0.56219516    -0.18200
C416        C  0.49927307  0.90304205  0.56317561    -0.18200
C417        C  0.50092864  0.90190449  0.43802876    -0.18100
C418        C  0.49956321  0.09642482  0.43697819    -0.18100
H419        H  0.50839578  0.05327816  0.62929988     0.14800
H420        H  0.50860064  0.94883401  0.62984673     0.14800
H421        H  0.48639064  0.05045302  0.37112727     0.14800
H422        H  0.48718187  0.94598573  0.37167671     0.14800
H423        H  0.49859665  0.20245475  0.53296706     0.13000
H424        H  0.50044003  0.20179292  0.46510592     0.13000
H425        H  0.50031440  0.79769864  0.53499453     0.13000
H426        H  0.50284190  0.79713231  0.46717277     0.13000
H427        H  0.48923587  0.99991208  0.52744311     0.26300
H428        H  0.51110180  0.99969557  0.47234172     0.26300
In429      In  0.74952738  0.22095958  0.80995634     1.36900
C430        C  0.74991554  0.29101671  0.86111453     0.77700
O431        O  0.80580985  0.21774061  0.81206375    -0.60700
O432        O  0.78319206  0.25059372  0.76751471    -0.51600
C433        C  0.74966278  0.11513039  0.81241091     0.72400
O434        O  0.74546887  0.14336834  0.83899831    -0.46500
C435        C  0.68982237  0.23531408  0.78076712     0.75100
O436        O  0.75231951  0.24171088  0.86624269    -0.58400
O437        O  0.71710613  0.24724435  0.76586589    -0.48400
O438        O  0.74703233  0.30461486  0.83004144    -0.54800
C439        C  0.81000595  0.23805447  0.78260570     0.85300
O440        O  0.75380068  0.14123751  0.78495030    -0.56700
O441        O  0.69317397  0.21704200  0.81082963    -0.60000
In442      In  0.74871644  0.77945228  0.81036023     1.36900
C443        C  0.74940577  0.70914580  0.86140901     0.77700
O444        O  0.69239694  0.78456314  0.81147946    -0.60700
O445        O  0.71598889  0.75103223  0.76735331    -0.51600
C446        C  0.74930145  0.88528065  0.81265413     0.70400
O447        O  0.74586724  0.85706753  0.83941139    -0.46500
C448        C  0.80884113  0.76188108  0.78228034     0.75100
O449        O  0.75161350  0.75843098  0.86665324    -0.58400
O450        O  0.78183293  0.75167798  0.76686278    -0.48400
O451        O  0.74637051  0.69579832  0.83034591    -0.54800
C452        C  0.68885388  0.76429222  0.78201719     0.85300
O453        O  0.75242406  0.85914815  0.78512183    -0.56700
O454        O  0.80495672  0.78028495  0.81226760    -0.60000
In455      In  0.00016696  0.27972404  0.68959206     1.36900
C456        C  0.99943906  0.20989547  0.63838682     0.77700
O457        O  0.55656984  0.28069530  0.68727180    -0.60700
O458        O  0.53295051  0.24995934  0.73227255    -0.51600
C459        C  0.49986250  0.38539752  0.68719304     0.70400
O460        O  0.99602944  0.35729511  0.66058236    -0.46500
C461        C  0.94047371  0.26521439  0.71919320     0.75100
O462        O  0.50402330  0.25885254  0.63327534    -0.58400
O463        O  0.96759998  0.25383687  0.73405524    -0.48400
O464        O  0.99520520  0.19665286  0.66942216    -0.54800
C465        C  0.56014445  0.26118059  0.71698462     0.85300
O466        O  0.50386978  0.35926348  0.71455834    -0.56700
O467        O  0.94403254  0.28347976  0.68909252    -0.60000
In468      In  0.49972440  0.72012217  0.69039032     1.36900
C469        C  0.50069085  0.79062834  0.63941922     0.77700
O470        O  0.94346058  0.71623112  0.68912879    -0.60700
O471        O  0.96647702  0.74583571  0.73430831    -0.51600
C472        C  0.49952602  0.61467851  0.68777634     0.70400
O473        O  0.49612233  0.64306545  0.66115910    -0.46500
C474        C  0.55938249  0.73671216  0.71861437     0.75100
O475        O  0.00397831  0.74149519  0.63409297    -0.58400
O476        O  0.53220715  0.75051194  0.73300456    -0.48400
O477        O  0.49707352  0.80368321  0.67052176    -0.54800
C478        C  0.93952359  0.73434023  0.71918877     0.85300
O479        O  0.00292027  0.64045678  0.71535038    -0.56700
O480        O  0.55594284  0.71536707  0.68946237    -0.60000
C481        C  0.49238437  0.47246482  0.65659598    -0.13200
C482        C  0.49975935  0.44403559  0.68679290     0.08900
C483        C  0.00704780  0.47211562  0.71706749    -0.13200
C484        C  0.00698099  0.52753548  0.71722121    -0.13200
C485        C  0.49962222  0.55607346  0.68710068     0.08900
C486        C  0.49233796  0.52812747  0.65674542    -0.13200
H487        H  0.48657986  0.45170166  0.63294969     0.12900
H488        H  0.01288050  0.45122133  0.74070498     0.12900
H489        H  0.01277022  0.54806429  0.74096566     0.12900
H490        H  0.48649402  0.54927259  0.63321071     0.12900
C491        C  0.62637929  0.77510572  0.78255405    -0.13200
C492        C  0.65571152  0.75710913  0.76588282     0.08900
C493        C  0.65314578  0.73268573  0.73347874    -0.13200
C494        C  0.62181659  0.72626086  0.71805822    -0.13200
C495        C  0.59248666  0.74424572  0.73472435     0.08900
C496        C  0.59503934  0.76871149  0.76711639    -0.13200
H497        H  0.62766176  0.79421448  0.80751055     0.12900
H498        H  0.67536243  0.71848273  0.72005113     0.12900
H499        H  0.62054459  0.70709402  0.69311843     0.12900
H500        H  0.57280772  0.78285542  0.78054560     0.12900
C501        C  0.87151761  0.76501758  0.78498883    -0.13200
C502        C  0.84226260  0.75382363  0.76637043     0.08900
C503        C  0.84521798  0.73599783  0.73219046    -0.13200
C504        C  0.87686715  0.72969686  0.71684491    -0.13200
C505        C  0.90611764  0.74114937  0.73539848     0.08900
C506        C  0.90316878  0.75874178  0.76963648    -0.13200
H507        H  0.86993842  0.77883348  0.81138822     0.12900
H508        H  0.82305774  0.72722238  0.71723816     0.12900
H509        H  0.87844126  0.71601852  0.69041638     0.12900
H510        H  0.92532742  0.76766538  0.78455592     0.12900
C511        C  0.65410098  0.26486164  0.73148242    -0.13200
C512        C  0.65669389  0.24165824  0.76431332     0.08900
C513        C  0.62735418  0.22400921  0.78117815    -0.13200
C514        C  0.59600166  0.22977097  0.76561622    -0.13200
C515        C  0.59338657  0.25327016  0.73287785     0.08900
C516        C  0.62273989  0.27063101  0.71591804    -0.13200
H517        H  0.67630731  0.27876362  0.71788239     0.12900
H518        H  0.62863057  0.20573997  0.80643349     0.12900
H519        H  0.57378465  0.21606219  0.77928506     0.12900
H520        H  0.62143712  0.28909179  0.69072309     0.12900
C521        C  0.87274688  0.23350183  0.78518752    -0.13200
C522        C  0.84348774  0.24563049  0.76676949     0.08900
C523        C  0.84639919  0.26398713  0.73269214    -0.13200
C524        C  0.87796752  0.27012512  0.71725543    -0.13200
C525        C  0.90723077  0.25809472  0.73561792     0.08900
C526        C  0.90438591  0.23973660  0.76973681    -0.13200
H527        H  0.87117194  0.21916321  0.81149639     0.12900
H528        H  0.82424067  0.27334008  0.71786569     0.12900
H529        H  0.87946074  0.28428064  0.69090282     0.12900
H530        H  0.92658826  0.23025797  0.78446745     0.12900
C531        C  0.74715950  0.02808864  0.84417677    -0.13200
C532        C  0.74967655  0.05635384  0.81297863     0.08900
C533        C  0.75218763  0.02793567  0.78192485    -0.13200
C534        C  0.75211592  0.97243859  0.78198647    -0.13200
C535        C  0.74955567  0.94405776  0.81310535     0.08900
C536        C  0.74712552  0.97236359  0.84424189    -0.13200
H537        H  0.74523058  0.04903645  0.86848640     0.12900
H538        H  0.75412625  0.04862680  0.75747900     0.12900
H539        H  0.75400312  0.95172032  0.75758518     0.12900
H540        H  0.74515219  0.95144951  0.86859933     0.12900
C541        C  0.50024143  0.86266657  0.58990038    -0.13100
C542        C  0.50076102  0.82918025  0.61215527    -0.14700
C543        C  0.99920355  0.17170169  0.61096584    -0.13100
C544        C  0.99900124  0.13842021  0.58862324    -0.14700
C545        C  0.00071741  0.82829053  0.38893872    -0.13100
C546        C  0.00084750  0.86125923  0.41149012    -0.14700
C547        C  0.49917725  0.13660225  0.41002001    -0.13100
C548        C  0.49913033  0.16977723  0.38749878    -0.14700
C549        C  0.49857528  0.47240005  0.34488021    -0.13200
C550        C  0.49862092  0.44428637  0.31360885     0.08900
C551        C  0.99871975  0.47265842  0.28242354    -0.13200
C552        C  0.99878862  0.52803609  0.28239942    -0.13200
C553        C  0.49876588  0.55630510  0.31356137     0.08900
C554        C  0.49862494  0.52808537  0.34485598    -0.13200
H555        H  0.49849641  0.45138681  0.36926965     0.12900
H556        H  0.99880614  0.45202901  0.25792998     0.12900
H557        H  0.99892802  0.54874339  0.25789443     0.12900
H558        H  0.49860285  0.54902174  0.36923303     0.12900
C559        C  0.65457101  0.73367454  0.26703565    -0.13200
C560        C  0.65743618  0.75189403  0.23288434     0.08900
C561        C  0.62809144  0.76360295  0.21451281    -0.13200
C562        C  0.59649371  0.75780877  0.23016400    -0.13200
C563        C  0.59366863  0.74016513  0.26445623     0.08900
C564        C  0.62299460  0.72785803  0.28266900    -0.13200
H565        H  0.67677690  0.72445319  0.28182218     0.12900
H566        H  0.62956878  0.77764344  0.18813294     0.12900
H567        H  0.57427480  0.76724512  0.21545192     0.12900
H568        H  0.62154532  0.71404425  0.30909950     0.12900
C569        C  0.84646004  0.74014259  0.26888103    -0.13200
C570        C  0.84411977  0.75831119  0.23475498     0.08900
C571        C  0.87367328  0.77043061  0.21630120    -0.13200
C572        C  0.90504171  0.76431819  0.23170065    -0.13200
C573        C  0.90737116  0.74591512  0.26579169     0.08900
C574        C  0.87781121  0.73395518  0.28425302    -0.13200
H575        H  0.82405327  0.73063227  0.28369101     0.12900
H576        H  0.87254867  0.78460750  0.18995651     0.12900
H577        H  0.92746347  0.77369224  0.21687528     0.12900
H578        H  0.87891869  0.71963651  0.31056435     0.12900
C579        C  0.65341356  0.27123770  0.26644486    -0.13200
C580        C  0.65644988  0.24865693  0.23346798     0.08900
C581        C  0.62729791  0.23308596  0.21604393    -0.13200
C582        C  0.59571084  0.23917361  0.23155699    -0.13200
C583        C  0.59271029  0.26100642  0.26474430     0.08900
C584        C  0.62181479  0.27741874  0.28193368    -0.13200
H585        H  0.67549423  0.28362093  0.28042723     0.12900
H586        H  0.62892822  0.21567314  0.19056234     0.12900
H587        H  0.57364352  0.22656454  0.21763673     0.12900
H588        H  0.62018559  0.29462602  0.30747438     0.12900
C589        C  0.90379406  0.24089628  0.23106946    -0.13200
C590        C  0.90629936  0.25655062  0.26567081     0.08900
C591        C  0.87681684  0.26513284  0.28504346    -0.13200
C592        C  0.84534710  0.25830524  0.27004300    -0.13200
C593        C  0.84285040  0.24291110  0.23539191     0.08900
C594        C  0.87233083  0.23412473  0.21606197    -0.13200
H595        H  0.92614535  0.23404909  0.21557121     0.12900
H596        H  0.87807607  0.27720870  0.31179138     0.12900
H597        H  0.82298967  0.26517173  0.28552866     0.12900
H598        H  0.87107817  0.22207654  0.18930769     0.12900
C599        C  0.75649934  0.02819990  0.15629074    -0.13200
C600        C  0.75069674  0.05616141  0.18712182     0.08900
C601        C  0.74485139  0.02749773  0.21767052    -0.13200
C602        C  0.74476269  0.97204397  0.21748223    -0.13200
C603        C  0.75056603  0.94393881  0.18675158     0.08900
C604        C  0.75644575  0.97247467  0.15610784    -0.13200
H605        H  0.76115248  0.04937813  0.13239253     0.12900
H606        H  0.74024475  0.04796330  0.24180446     0.12900
H607        H  0.74012738  0.95113666  0.24148848     0.12900
H608        H  0.76108743  0.95174903  0.13208003     0.12900
C609        C  0.75141064  0.32906163  0.11217816    -0.13100
C610        C  0.75192165  0.36217404  0.08969147    -0.14700
C611        C  0.75276487  0.63735970  0.08941071    -0.13100
C612        C  0.75270914  0.67043599  0.11185703    -0.14700
C613        C  0.75161351  0.36193664  0.91118079    -0.13100
C614        C  0.75064833  0.32908286  0.88860188    -0.14700
C615        C  0.75198663  0.63749566  0.91104604    -0.13100
C616        C  0.75063692  0.67075590  0.88870808    -0.14700
loop_ 
_geom_bond_atom_site_label_1 
_geom_bond_atom_site_label_2 
_geom_bond_distance 
_geom_bond_site_symmetry_2 
_ccdc_geom_bond_type 
N1            C6   1.355       .  A
N1            C5   1.355       .  A
N1           H33   1.035       .  S
N2            C9   1.350   1_554  A
N2           C10   1.351       .  A
N3            C8   1.355       .  A
N3            C7   1.355       .  A
N3           H34   1.036       .  S
N4           C11   1.351   1_554  A
N4           C12   1.351       .  A
C5           C13   1.388       .  A
C5           C21   1.418       .  A
C6           C22   1.418       .  A
C6           C14   1.388       .  A
C7           C15   1.388       .  A
C7           C24   1.417       .  A
C8           C23   1.417       .  A
C8           C16   1.388       .  A
C9           C21   1.413       .  A
C9           C17   1.388       .  A
C10          C24   1.413       .  A
C10          C18   1.387       .  A
C11          C19   1.387       .  A
C11          C22   1.414       .  A
C12          C20   1.387       .  A
C12          C23   1.413       .  A
C13          C14   1.372       .  A
C13          H25   1.082       .  S
C14          H26   1.082       .  S
C15          C16   1.373       .  A
C15          H27   1.082       .  S
C16          H28   1.082       .  S
C17          C18   1.371   1_556  A
C17          H29   1.082       .  S
C18          H30   1.082       .  S
C19          C20   1.371   1_556  A
C19          H31   1.082       .  S
C20          H32   1.082       .  S
C21         C307   1.450       .  S
C22         C305   1.451       .  S
C23         C302   1.450       .  S
C24         C303   1.450       .  S
In35         O37   2.242       .  S
In35         O38   2.242       .  S
In35         O46   2.234       .  S
In35         O40   2.258       .  S
In35         O42   2.247       .  S
In35         O43   2.245       .  S
In35         O44   2.241       .  S
In35         O47   2.236       .  S
C36         C301   1.433       .  S
C36          O42   1.260       .  A
C36          O44   1.259       .  A
O37          C45   1.261       .  A
O38          C45   1.261       .  A
C39          O46   1.259       .  A
C39          O40   1.262       .  A
C39         C292   1.477       .  S
C41          O43   1.261       .  A
C41          O47   1.260       .  A
C41         C285   1.473       .  S
C45         C272   1.476       .  S
In48         O50   2.242       .  S
In48         O51   2.244       .  S
In48         O59   2.232       .  S
In48         O53   2.260       .  S
In48         O55   2.246       .  S
In48         O56   2.242       .  S
In48         O57   2.242       .  S
In48         O60   2.247       .  S
C49         C304   1.433       .  S
C49          O55   1.260       .  A
C49          O57   1.259       .  A
O50          C58   1.260       .  A
O51          C58   1.261       .  A
C52          O59   1.259       .  A
C52          O53   1.262       .  A
C52         C295   1.478       .  S
C54          O56   1.262       .  A
C54          O60   1.262       .  A
C54         C252   1.478       .  S
C58         C262   1.474       .  S
In61         O66   2.256       .  S
In61         O69   2.240   1_655  S
In61         O70   2.247   1_655  S
In61         O73   2.242   1_655  S
In61        O371   2.239       .  S
In61        O372   2.245       .  S
In61        O380   2.225       .  S
In61        O376   2.251       .  S
C62         C240   1.437       .  S
C62          O70   1.259   1_655  A
C62         O376   1.260       .  A
O63        In369   2.239       .  S
O63          C71   1.260       .  A
O64        In369   2.245       .  S
O64          C71   1.261       .  A
C65          O66   1.263       .  A
C65         O380   1.259       .  A
C65         C242   1.475       .  S
C67          O69   1.262       .  A
C67          O73   1.261       .  A
C67         C275   1.476       .  S
O68        In369   2.251       .  S
O68         C370   1.260       .  A
C71         C282   1.474       .  S
O72        In369   2.225       .  S
O72         C373   1.259       .  A
In74         O79   2.256       .  S
In74         O82   2.245       .  S
In74         O83   2.245       .  S
In74         O86   2.242       .  S
In74        O384   2.246       .  S
In74        O385   2.245       .  S
In74        O393   2.228       .  S
In74        O389   2.251       .  S
C75         C237   1.435       .  S
C75          O83   1.259       .  A
C75         O389   1.259       .  A
O76        In382   2.246       .  S
O76          C84   1.261       .  A
O77        In382   2.245       .  S
O77          C84   1.261       .  A
C78          O85   1.259       .  A
C78         O387   1.262       .  A
C78         C245   1.475       .  S
O79         C386   1.262       .  A
C80          O82   1.261       .  A
C80          O86   1.260       .  A
C80         C265   1.475       .  S
O81        In382   2.251   1_655  S
O81         C383   1.259   1_655  A
C84         C255   1.478       .  S
O85        In382   2.228   1_655  S
N87          C92   1.356   1_545  A
N87          C91   1.356       .  A
N87         H119   1.033   1_545  S
N88          C95   1.351       .  A
N88          C96   1.351   1_655  A
N89          C94   1.356   1_455  A
N89          C93   1.356   1_465  A
N89         H120   1.035       .  S
N90          C97   1.351   1_455  A
N90          C98   1.351       .  A
C91          C99   1.388   1_655  A
C91         C107   1.418       .  A
C92         C108   1.418       .  A
C92         C100   1.388   1_655  A
C93         C101   1.387       .  A
C93         C110   1.417       .  A
C94         C109   1.417   1_655  A
C94         C102   1.388       .  A
C95         C107   1.414       .  A
C95         C103   1.387       .  A
C96         C110   1.413   1_455  A
C96         C104   1.387       .  A
C97         C105   1.388   1_655  A
C97         C108   1.413       .  A
C98         C106   1.387       .  A
C98         C109   1.413       .  A
C99         C100   1.373   1_545  A
C99         H111   1.082       .  S
C100        H112   1.082       .  S
C101        C102   1.373   1_545  A
C101        H113   1.082       .  S
C102        H114   1.082       .  S
C103        C104   1.371   1_655  A
C103        H115   1.082       .  S
C104        H116   1.082       .  S
C105        C106   1.371       .  A
C105        H117   1.082       .  S
C106        H118   1.082       .  S
C107        C544   1.451       .  S
C108        C233   1.451   1_655  S
C109        C546   1.452       .  S
C110        C239   1.453       .  S
In121       O123   2.244       .  S
In121       O124   2.240       .  S
In121       O132   2.235       .  S
In121       O126   2.257       .  S
In121       O128   2.249       .  S
In121       O129   2.250       .  S
In121       O130   2.247       .  S
In121       O133   2.245       .  S
C122        C306   1.435       .  S
C122        O128   1.260       .  A
C122        O130   1.259       .  A
O123        C131   1.261       .  A
O124        C131   1.262       .  A
C125        O132   1.260       .  A
C125        O126   1.263       .  A
C125        C224   1.479       .  S
C127        O129   1.262       .  A
C127        O133   1.261       .  A
C127        C204   1.479       .  S
C131        C214   1.475       .  S
In134       O136   2.245       .  S
In134       O137   2.244       .  S
In134       O145   2.234       .  S
In134       O139   2.258       .  S
In134       O141   2.250       .  S
In134       O142   2.244       .  S
In134       O143   2.243       .  S
In134       O146   2.241       .  S
C135        C308   1.433       .  S
C135        O141   1.260       .  A
C135        O143   1.258       .  A
O136        C144   1.261       .  A
O137        C144   1.261       .  A
C138        O145   1.260       .  A
C138        O139   1.263       .  A
C138        C227   1.479       .  S
C140        O142   1.262       .  A
C140        O146   1.261       .  A
C140        C194   1.475       .  S
C144        C184   1.477       .  S
In147       O152   2.258       .  S
In147       O155   2.244       .  S
In147       O156   2.242       .  S
In147       O159   2.237       .  S
In147       O457   2.246       .  S
In147       O458   2.245       .  S
In147       O466   2.230       .  S
In147       O462   2.251       .  S
C148        C235   1.434       .  S
C148        O156   1.258       .  A
C148        O462   1.260       .  A
O149       In455   2.246       .  S
O149        C157   1.261       .  A
O150       In455   2.245       .  S
O150        C157   1.261       .  A
C151        O158   1.259   1_655  A
C151        O460   1.262       .  A
C151        C174   1.475       .  S
O152        C459   1.262       .  A
C153        O155   1.261       .  A
C153        O159   1.261       .  A
C153        C217   1.474       .  S
O154       In455   2.251       .  S
O154        C456   1.260   1_455  A
C157        C207   1.478       .  S
O158       In455   2.230       .  S
In160       O165   2.252       .  S
In160       O168   2.243   1_655  S
In160       O169   2.241       .  S
In160       O172   2.241   1_655  S
In160       O470   2.243       .  S
In160       O471   2.243       .  S
In160       O479   2.228   1_655  S
In160       O475   2.253   1_655  S
C161        C234   1.434       .  S
C161        O169   1.258   1_455  A
C161        O475   1.260       .  A
O162       In468   2.243       .  S
O162        C170   1.261       .  A
O163       In468   2.243       .  S
O163        C170   1.261       .  A
C164        O165   1.263       .  A
C164        O479   1.260   1_655  A
C164        C177   1.475       .  S
C166        O168   1.262       .  A
C166        O172   1.261       .  A
C166        C187   1.476       .  S
O167       In468   2.253       .  S
O167        C469   1.260       .  A
C170        C197   1.476       .  S
O171       In468   2.228       .  S
O171        C472   1.260       .  A
C173        C174   1.405       .  A
C173        C178   1.400       .  A
C173        H179   1.083       .  S
C174        C483   1.404   1_655  A
C175        C176   1.394       .  A
C175        C482   1.404       .  A
C175        H180   1.083       .  S
C176        C485   1.403       .  A
C176        H181   1.083       .  S
C177        C178   1.405       .  A
C177        C484   1.403   1_655  A
C178        H182   1.083       .  S
C183        C184   1.405       .  A
C183        C188   1.398       .  A
C183        H189   1.083       .  S
C184        C185   1.404       .  A
C185        C186   1.397       .  A
C185        H190   1.083       .  S
C186        C187   1.404       .  A
C186        H191   1.083       .  S
C187        C188   1.404       .  A
C188        H192   1.083       .  S
C193        C194   1.405       .  A
C193        C198   1.398       .  A
C193        H199   1.083       .  S
C194        C195   1.404       .  A
C195        C196   1.397       .  A
C195        H200   1.083       .  S
C196        C197   1.404       .  A
C196        H201   1.083       .  S
C197        C198   1.404       .  A
C198        H202   1.083       .  S
C203        C204   1.405       .  A
C203        C208   1.399       .  A
C203        H209   1.083       .  S
C204        C205   1.405       .  A
C205        C206   1.399       .  A
C205        H210   1.083       .  S
C206        C207   1.405       .  A
C206        H211   1.083       .  S
C207        C208   1.405       .  A
C208        H212   1.083       .  S
C213        C214   1.405       .  A
C213        C218   1.398       .  A
C213        H219   1.083       .  S
C214        C215   1.403       .  A
C215        C216   1.395       .  A
C215        H220   1.083       .  S
C216        C217   1.404       .  A
C216        H221   1.083       .  S
C217        C218   1.405       .  A
C218        H222   1.083       .  S
C223        C224   1.405       .  A
C223        C228   1.402   1_545  A
C223        H229   1.083       .  S
C224        C225   1.404       .  A
C225        C226   1.396   1_545  A
C225        H230   1.083       .  S
C226        C227   1.404       .  A
C226        H231   1.083       .  S
C227        C228   1.405       .  A
C228        H232   1.083       .  S
C233        C234   1.206       .  T
C235        C236   1.206       .  T
C236        C415   1.451       .  S
C237        C238   1.206       .  T
C238        C417   1.452       .  S
C239        C240   1.207       .  T
C241        C242   1.405       .  A
C241        C246   1.401       .  A
C241        H247   1.083       .  S
C242        C551   1.403       .  A
C243        C244   1.393       .  A
C243        C550   1.403       .  A
C243        H248   1.083       .  S
C244        C553   1.403       .  A
C244        H249   1.083       .  S
C245        C246   1.405       .  A
C245        C552   1.403       .  A
C246        H250   1.083       .  S
C251        C252   1.405       .  A
C251        C256   1.398       .  A
C251        H257   1.083       .  S
C252        C253   1.405       .  A
C253        C254   1.399       .  A
C253        H258   1.083       .  S
C254        C255   1.405       .  A
C254        H259   1.083       .  S
C255        C256   1.404       .  A
C256        H260   1.083       .  S
C261        C262   1.404       .  A
C261        C266   1.397       .  A
C261        H267   1.083       .  S
C262        C263   1.405       .  A
C263        C264   1.397       .  A
C263        H268   1.083       .  S
C264        C265   1.404       .  A
C264        H269   1.083       .  S
C265        C266   1.404       .  A
C266        H270   1.083       .  S
C271        C272   1.404       .  A
C271        C276   1.398       .  A
C271        H277   1.083       .  S
C272        C273   1.404       .  A
C273        C274   1.397       .  A
C273        H278   1.083       .  S
C274        C275   1.404       .  A
C274        H279   1.083       .  S
C275        C276   1.404       .  A
C276        H280   1.083       .  S
C281        C282   1.404       .  A
C281        C286   1.396       .  A
C281        H287   1.083       .  S
C282        C283   1.404       .  A
C283        C284   1.397       .  A
C283        H288   1.083       .  S
C284        C285   1.404       .  A
C284        H289   1.083       .  S
C285        C286   1.404       .  A
C286        H290   1.083       .  S
C291        C292   1.405       .  A
C291        C296   1.402   1_545  A
C291        H297   1.083       .  S
C292        C293   1.404       .  A
C293        C294   1.395   1_545  A
C293        H298   1.083       .  S
C294        C295   1.404       .  A
C294        H299   1.083       .  S
C295        C296   1.405       .  A
C296        H300   1.083       .  S
C301        C302   1.205       .  T
C303        C304   1.205       .  T
C305        C306   1.206       .  T
C307        C308   1.205       .  T
N309        C314   1.355       .  A
N309        C313   1.355       .  A
N309        H341   1.035       .  S
N310        C317   1.350   1_554  A
N310        C318   1.351       .  A
N311        C316   1.355       .  A
N311        C315   1.355       .  A
N311        H342   1.036       .  S
N312        C319   1.351   1_554  A
N312        C320   1.351       .  A
C313        C321   1.388       .  A
C313        C329   1.418       .  A
C314        C330   1.418       .  A
C314        C322   1.388       .  A
C315        C323   1.388       .  A
C315        C332   1.417       .  A
C316        C331   1.417       .  A
C316        C324   1.388       .  A
C317        C329   1.413       .  A
C317        C325   1.388       .  A
C318        C332   1.413       .  A
C318        C326   1.387       .  A
C319        C327   1.387       .  A
C319        C330   1.414       .  A
C320        C328   1.387       .  A
C320        C331   1.413       .  A
C321        C322   1.372       .  A
C321        H333   1.082       .  S
C322        H334   1.082       .  S
C323        C324   1.373       .  A
C323        H335   1.082       .  S
C324        H336   1.082       .  S
C325        C326   1.371   1_556  A
C325        H337   1.082       .  S
C326        H338   1.082       .  S
C327        C328   1.371   1_556  A
C327        H339   1.082       .  S
C328        H340   1.082       .  S
C329        C615   1.450       .  S
C330        C613   1.451       .  S
C331        C610   1.450       .  S
C332        C611   1.450       .  S
In343       O345   2.242       .  S
In343       O346   2.242       .  S
In343       O354   2.234       .  S
In343       O348   2.258       .  S
In343       O350   2.247       .  S
In343       O351   2.245       .  S
In343       O352   2.241       .  S
In343       O355   2.236       .  S
C344        C609   1.433       .  S
C344        O350   1.260       .  A
C344        O352   1.259       .  A
O345        C353   1.261       .  A
O346        C353   1.261       .  A
C347        O354   1.259       .  A
C347        O348   1.262       .  A
C347        C600   1.477       .  S
C349        O351   1.261       .  A
C349        O355   1.260       .  A
C349        C593   1.473       .  S
C353        C580   1.476       .  S
In356       O358   2.242       .  S
In356       O359   2.244       .  S
In356       O367   2.232       .  S
In356       O361   2.260       .  S
In356       O363   2.246       .  S
In356       O364   2.242       .  S
In356       O365   2.242       .  S
In356       O368   2.247       .  S
C357        C612   1.433       .  S
C357        O363   1.260       .  A
C357        O365   1.259       .  A
O358        C366   1.260       .  A
O359        C366   1.261       .  A
C360        O367   1.259       .  A
C360        O361   1.262       .  A
C360        C603   1.478       .  S
C362        O364   1.262       .  A
C362        O368   1.262       .  A
C362        C560   1.478       .  S
C366        C570   1.474       .  S
In369       O374   2.256       .  S
In369       O377   2.240       .  S
In369       O378   2.247       .  S
In369       O381   2.242       .  S
C370        C548   1.437       .  S
C370        O378   1.259       .  A
O371        C379   1.260       .  A
O372        C379   1.261       .  A
C373        O374   1.263       .  A
C373        C550   1.475       .  S
C375        O377   1.262       .  A
C375        O381   1.261       .  A
C375        C583   1.476       .  S
C379        C590   1.474       .  S
In382       O387   2.256   1_455  S
In382       O390   2.245   1_455  S
In382       O391   2.245       .  S
In382       O394   2.242   1_455  S
C383        C545   1.435       .  S
C383        O391   1.259       .  A
O384        C392   1.261       .  A
O385        C392   1.261       .  A
C386        O393   1.259       .  A
C386        C553   1.475       .  S
C388        O390   1.261       .  A
C388        O394   1.260       .  A
C388        C573   1.475       .  S
C392        C563   1.478       .  S
N395        C400   1.356   1_545  A
N395        C399   1.356       .  A
N395        H427   1.033   1_545  S
N396        C403   1.351       .  A
N396        C404   1.351       .  A
N397        C402   1.356       .  A
N397        C401   1.356   1_565  A
N397        H428   1.035       .  S
N398        C405   1.351       .  A
N398        C406   1.351       .  A
C399        C407   1.388       .  A
C399        C415   1.418       .  A
C400        C416   1.418       .  A
C400        C408   1.388       .  A
C401        C409   1.387       .  A
C401        C418   1.417       .  A
C402        C417   1.417       .  A
C402        C410   1.388       .  A
C403        C415   1.414       .  A
C403        C411   1.387       .  A
C404        C418   1.413       .  A
C404        C412   1.387       .  A
C405        C413   1.388       .  A
C405        C416   1.413       .  A
C406        C414   1.387       .  A
C406        C417   1.413       .  A
C407        C408   1.373   1_545  A
C407        H419   1.082       .  S
C408        H420   1.082       .  S
C409        C410   1.373   1_545  A
C409        H421   1.082       .  S
C410        H422   1.082       .  S
C411        C412   1.371       .  A
C411        H423   1.082       .  S
C412        H424   1.082       .  S
C413        C414   1.371       .  A
C413        H425   1.082       .  S
C414        H426   1.082       .  S
C416        C541   1.451       .  S
C418        C547   1.453       .  S
In429       O431   2.244       .  S
In429       O432   2.240       .  S
In429       O440   2.235       .  S
In429       O434   2.257       .  S
In429       O436   2.249       .  S
In429       O437   2.250       .  S
In429       O438   2.247       .  S
In429       O441   2.245       .  S
C430        C614   1.435       .  S
C430        O436   1.260       .  A
C430        O438   1.259       .  A
O431        C439   1.261       .  A
O432        C439   1.262       .  A
C433        O440   1.260       .  A
C433        O434   1.263       .  A
C433        C532   1.479       .  S
C435        O437   1.262       .  A
C435        O441   1.261       .  A
C435        C512   1.479       .  S
C439        C522   1.475       .  S
In442       O444   2.245       .  S
In442       O445   2.244       .  S
In442       O453   2.234       .  S
In442       O447   2.258       .  S
In442       O449   2.250       .  S
In442       O450   2.244       .  S
In442       O451   2.243       .  S
In442       O454   2.241       .  S
C443        C616   1.433       .  S
C443        O449   1.260       .  A
C443        O451   1.258       .  A
O444        C452   1.261       .  A
O445        C452   1.261       .  A
C446        O453   1.260       .  A
C446        O447   1.263       .  A
C446        C535   1.479       .  S
C448        O450   1.262       .  A
C448        O454   1.261       .  A
C448        C502   1.475       .  S
C452        C492   1.477       .  S
In455       O460   2.258   1_455  S
In455       O463   2.244   1_455  S
In455       O464   2.242   1_455  S
In455       O467   2.237   1_455  S
C456        C543   1.434       .  S
C456        O464   1.258       .  A
O457        C465   1.261       .  A
O458        C465   1.261       .  A
C459        O466   1.259       .  A
C459        C482   1.475       .  S
C461        O463   1.261       .  A
C461        O467   1.261       .  A
C461        C525   1.474       .  S
C465        C515   1.478       .  S
In468       O473   2.252       .  S
In468       O476   2.243       .  S
In468       O477   2.241       .  S
In468       O480   2.241       .  S
C469        C542   1.434       .  S
C469        O477   1.258       .  A
O470        C478   1.261       .  A
O471        C478   1.261       .  A
C472        O473   1.263       .  A
C472        C485   1.475       .  S
C474        O476   1.262       .  A
C474        O480   1.261       .  A
C474        C495   1.476       .  S
C478        C505   1.476       .  S
C481        C482   1.405       .  A
C481        C486   1.400       .  A
C481        H487   1.083       .  S
C483        C484   1.394       .  A
C483        H488   1.083       .  S
C484        H489   1.083       .  S
C485        C486   1.405       .  A
C486        H490   1.083       .  S
C491        C492   1.405       .  A
C491        C496   1.398       .  A
C491        H497   1.083       .  S
C492        C493   1.404       .  A
C493        C494   1.397       .  A
C493        H498   1.083       .  S
C494        C495   1.404       .  A
C494        H499   1.083       .  S
C495        C496   1.404       .  A
C496        H500   1.083       .  S
C501        C502   1.405       .  A
C501        C506   1.398       .  A
C501        H507   1.083       .  S
C502        C503   1.404       .  A
C503        C504   1.397       .  A
C503        H508   1.083       .  S
C504        C505   1.404       .  A
C504        H509   1.083       .  S
C505        C506   1.404       .  A
C506        H510   1.083       .  S
C511        C512   1.405       .  A
C511        C516   1.399       .  A
C511        H517   1.083       .  S
C512        C513   1.405       .  A
C513        C514   1.399       .  A
C513        H518   1.083       .  S
C514        C515   1.405       .  A
C514        H519   1.083       .  S
C515        C516   1.405       .  A
C516        H520   1.083       .  S
C521        C522   1.405       .  A
C521        C526   1.398       .  A
C521        H527   1.083       .  S
C522        C523   1.403       .  A
C523        C524   1.395       .  A
C523        H528   1.083       .  S
C524        C525   1.404       .  A
C524        H529   1.083       .  S
C525        C526   1.405       .  A
C526        H530   1.083       .  S
C531        C532   1.405       .  A
C531        C536   1.402   1_545  A
C531        H537   1.083       .  S
C532        C533   1.404       .  A
C533        C534   1.396   1_545  A
C533        H538   1.083       .  S
C534        C535   1.404       .  A
C534        H539   1.083       .  S
C535        C536   1.405       .  A
C536        H540   1.083       .  S
C541        C542   1.206       .  T
C543        C544   1.206       .  T
C545        C546   1.206       .  T
C547        C548   1.207       .  T
C549        C550   1.405       .  A
C549        C554   1.401       .  A
C549        H555   1.083       .  S
C551        C552   1.393       .  A
C551        H556   1.083       .  S
C552        H557   1.083       .  S
C553        C554   1.405       .  A
C554        H558   1.083       .  S
C559        C560   1.405       .  A
C559        C564   1.398       .  A
C559        H565   1.083       .  S
C560        C561   1.405       .  A
C561        C562   1.399       .  A
C561        H566   1.083       .  S
C562        C563   1.405       .  A
C562        H567   1.083       .  S
C563        C564   1.404       .  A
C564        H568   1.083       .  S
C569        C570   1.404       .  A
C569        C574   1.397       .  A
C569        H575   1.083       .  S
C570        C571   1.405       .  A
C571        C572   1.397       .  A
C571        H576   1.083       .  S
C572        C573   1.404       .  A
C572        H577   1.083       .  S
C573        C574   1.404       .  A
C574        H578   1.083       .  S
C579        C580   1.404       .  A
C579        C584   1.398       .  A
C579        H585   1.083       .  S
C580        C581   1.404       .  A
C581        C582   1.397       .  A
C581        H586   1.083       .  S
C582        C583   1.404       .  A
C582        H587   1.083       .  S
C583        C584   1.404       .  A
C584        H588   1.083       .  S
C589        C590   1.404       .  A
C589        C594   1.396       .  A
C589        H595   1.083       .  S
C590        C591   1.404       .  A
C591        C592   1.397       .  A
C591        H596   1.083       .  S
C592        C593   1.404       .  A
C592        H597   1.083       .  S
C593        C594   1.404       .  A
C594        H598   1.083       .  S
C599        C600   1.405       .  A
C599        C604   1.402   1_545  A
C599        H605   1.083       .  S
C600        C601   1.404       .  A
C601        C602   1.395   1_545  A
C601        H606   1.083       .  S
C602        C603   1.404       .  A
C602        H607   1.083       .  S
C603        C604   1.405       .  A
C604        H608   1.083       .  S
C609        C610   1.205       .  T
C611        C612   1.205       .  T
C613        C614   1.206       .  T
C615        C616   1.205       .  T
