geometry optimzed in LAMMPS
_audit_creation_date              2020-12-01 
_audit_creation_method            'lammps2cif' 
_symmetry_space_group_name_H-M    'P1' 
_symmetry_Int_Tables_number       1 
_symmetry_cell_setting            triclinic 
loop_ 
_symmetry_equiv_pos_as_xyz 
  x,y,z 
_cell_length_a                    26.82279907 
_cell_length_b                    25.938788928092062 
_cell_length_c                    27.973526968184853 
_cell_angle_alpha                 90.65187559955636 
_cell_angle_beta                  89.68561202015903 
_cell_angle_gamma                 89.77277010110492 
loop_ 
_atom_site_label 
_atom_site_type_symbol 
_atom_site_fract_x 
_atom_site_fract_y 
_atom_site_fract_z 
_atom_site_charge 
N1          N  0.44442473  0.60057642  0.45146935    -0.04700
N2          N  0.43452052  0.63503207  0.41825912    -0.56800
N3          N  0.41005462  0.56538521  0.56139105    -0.04400
N4          N  0.37554133  0.57584615  0.59396029    -0.59000
N5          N  0.44447763  0.60142183  0.56138696    -0.04000
N6          N  0.43406224  0.63718276  0.59400176    -0.56800
N7          N  0.40999962  0.56453034  0.45171557    -0.07200
N8          N  0.37609010  0.57364059  0.41874325    -0.59300
C9          C  0.39207103  0.61739058  0.39797302     0.97500
C10         C  0.39134613  0.62031381  0.61424261     0.97200
N11         N  0.44587143  0.40719571  0.56050258    -0.04900
N12         N  0.43746720  0.37352275  0.59469626    -0.57400
N13         N  0.41131929  0.44292674  0.45125259    -0.03000
N14         N  0.37892298  0.43471622  0.41668817    -0.58700
N15         N  0.44617816  0.40705496  0.45056013    -0.04900
N16         N  0.43824674  0.37362133  0.41552721    -0.57700
N17         N  0.41130634  0.44339777  0.56113986    -0.02700
N18         N  0.37867604  0.43507291  0.59572030    -0.58800
Mn19       Mn  0.40938429  0.50392391  0.50645636     1.18400
C20         C  0.39575583  0.39171311  0.61645955     0.99500
C21         C  0.39651850  0.39173107  0.39470228     1.00200
N22         N  0.56272283  0.60005983  0.56139199    -0.05000
N23         N  0.57171361  0.63445083  0.59548501    -0.61300
N24         N  0.59751841  0.56301721  0.45113684    -0.03800
N25         N  0.62936327  0.57014161  0.41567579    -0.61900
N26         N  0.56271956  0.59899182  0.45118503    -0.04500
N27         N  0.57022464  0.63137482  0.41578586    -0.61500
N28         N  0.59722739  0.56376072  0.56119155    -0.03400
N29         N  0.63029076  0.57271300  0.59505920    -0.62200
Mn30       Mn  0.50375991  0.60182100  0.50636863     1.10700
C31         C  0.61361727  0.61652008  0.61632344     1.00800
C32         C  0.61161650  0.61260050  0.39394347     1.00800
N33         N  0.56420405  0.40583913  0.44971820    -0.04500
N34         N  0.57354841  0.37145759  0.41551392    -0.59800
N35         N  0.59807331  0.44157286  0.56050881    -0.03800
N36         N  0.63070189  0.43197837  0.59459906    -0.56600
N37         N  0.56320026  0.40603039  0.55985861    -0.05100
N38         N  0.57117938  0.37165837  0.59342457    -0.59400
N39         N  0.59889815  0.44158312  0.45023860    -0.04100
N40         N  0.63248324  0.43233078  0.41641204    -0.56600
Mn41       Mn  0.50480606  0.40507948  0.50504683     1.20200
Mn42       Mn  0.59940437  0.50260072  0.50588406     1.10100
Cl43       Cl  0.50435798  0.50342861  0.50596070    -0.84600
C44         C  0.61592571  0.38879600  0.39485659     0.97800
C45         C  0.61306435  0.38854210  0.61491741     0.97600
C46         C  0.75948884  0.75611506  0.76291268     0.87900
C47         C  0.79398028  0.72604425  0.79644775    -0.52400
C48         C  0.82439899  0.75737071  0.82284861     0.10800
C49         C  0.81709528  0.81495016  0.81349928     0.21800
C50         C  0.73093406  0.79420410  0.79563501    -0.53100
C51         C  0.76148656  0.82524949  0.82216832     0.10900
C52         C  0.79457611  0.78973308  0.73262272    -0.52600
C53         C  0.82492203  0.82060821  0.75962632     0.11500
H54         H  0.79507609  0.68425555  0.79812358     0.16000
H55         H  0.84170526  0.84009209  0.83544495     0.01700
H56         H  0.69054064  0.79686347  0.79691768     0.16300
H57         H  0.79477333  0.78927191  0.69382966     0.16100
C58         C  0.74033528  0.24529101  0.77201803     0.87900
C59         C  0.77933422  0.21263471  0.74444543    -0.52400
C60         C  0.81032448  0.18539704  0.77364588     0.10800
C61         C  0.79911558  0.19331230  0.82686327     0.21800
C62         C  0.71262307  0.20696810  0.80412027    -0.53100
C63         C  0.74386621  0.17948401  0.83293084     0.10900
C64         C  0.77056244  0.27926942  0.80650010    -0.52600
C65         C  0.80197760  0.25196559  0.83485243     0.11500
H66         H  0.78263384  0.21231655  0.70575708     0.16000
H67         H  0.82377990  0.17058371  0.85049628     0.01700
H68         H  0.67253332  0.20162143  0.80326556     0.16300
H69         H  0.76827024  0.32109391  0.80755420     0.16100
C70         C  0.24134081  0.75799908  0.76143217     0.87900
C71         C  0.26609981  0.79993476  0.79235122    -0.52400
C72         C  0.23285965  0.82654559  0.82067564     0.10800
C73         C  0.17881371  0.80858087  0.81540638     0.21800
C74         C  0.21347000  0.72384431  0.79717238    -0.53100
C75         C  0.18047604  0.75041680  0.82546842     0.10900
C76         C  0.20055162  0.78633831  0.73331245    -0.52600
C77         C  0.16778126  0.81298397  0.76200992     0.11500
H78         H  0.30576818  0.80802948  0.79139092     0.16000
H79         H  0.15261864  0.83094472  0.83855305     0.01700
H80         H  0.21951665  0.68256278  0.80007798     0.16300
H81         H  0.19798524  0.78544166  0.69458362     0.16100
C82         C  0.25534982  0.25211951  0.76567719     0.87900
C83         C  0.21981307  0.28095726  0.80012399    -0.52400
C84         C  0.18859465  0.24918596  0.82483916     0.10800
C85         C  0.19519166  0.19176955  0.81138800     0.21800
C86         C  0.28235178  0.21240456  0.79671123    -0.53100
C87         C  0.25042177  0.18059535  0.82055490     0.10900
C88         C  0.22149873  0.22020414  0.73276034    -0.52600
C89         C  0.18959554  0.18882060  0.75672658     0.11500
H90         H  0.22000404  0.32253798  0.80518314     0.16000
H91         H  0.17017250  0.16499837  0.83046499     0.01700
H92         H  0.32265227  0.20937135  0.79894998     0.16300
H93         H  0.22279399  0.22206721  0.69399147     0.16100
N94         N  0.91829809  0.00332148  0.68912201    -0.35200
N95         N  0.99896183  0.92663782  0.68903116    -0.55800
N96         N  0.07253032  0.00762113  0.70563975    -0.35200
N97         N  0.99067988  0.08299302  0.71311962    -0.55800
C98         C  0.89132106  0.95941942  0.69161186     0.28400
C99         C  0.88710074  0.04298937  0.69998591     0.28400
C100        C  0.10062758  0.96487496  0.71279283     0.28400
C101        C  0.09600454  0.04761332  0.72739490     0.28400
C102        C  0.96028251  0.89526879  0.67866665     0.37000
C103        C  0.04080012  0.89779663  0.68425895     0.37000
C104        C  0.95001065  0.11335209  0.70778671     0.37000
C105        C  0.02978201  0.11504507  0.71929972     0.37000
C106        C  0.84200473  0.97171017  0.70217567    -0.20500
C107        C  0.83936043  0.02427035  0.70740689    -0.20500
C108        C  0.14310284  0.97822281  0.73811379    -0.20500
C109        C  0.14007901  0.03021321  0.74749439    -0.20500
C110        C  0.97761792  0.84624075  0.66725797    -0.21600
C111        C  0.02865709  0.84793875  0.67038827    -0.21500
C112        C  0.96341124  0.16485296  0.71057016    -0.21600
C113        C  0.01387960  0.16592699  0.71801029    -0.21500
C114        C  0.90952762  0.90832458  0.68531190    -0.16900
C115        C  0.90031120  0.09555705  0.70469718    -0.16900
C116        C  0.07890274  0.09939759  0.73007032    -0.16900
C117        C  0.08899027  0.91385818  0.69804750    -0.16900
H118        H  0.81097370  0.94554247  0.70618821     0.16000
H119        H  0.80612393  0.04603620  0.71673410     0.16000
H120        H  0.17270912  0.95292292  0.74981552     0.16000
H121        H  0.16695348  0.05236194  0.76776118     0.16000
H122        H  0.95566189  0.81247096  0.65875779     0.14300
H123        H  0.05380614  0.81563810  0.66495055     0.14300
H124        H  0.93918282  0.19820666  0.70843539     0.14300
H125        H  0.03622848  0.20026683  0.72263065     0.14300
H126        H  0.95572369  0.00615147  0.68037351     0.27600
H127        H  0.03975071  0.00956155  0.68622763     0.27600
C128        C  0.74882152  0.74963476  0.24304698     0.87900
C129        C  0.72397675  0.78935011  0.21045137    -0.52400
C130        C  0.75721717  0.82227580  0.18960202     0.10800
C131        C  0.81169676  0.81197675  0.20359690     0.21800
C132        C  0.78780198  0.72206351  0.21127890    -0.53100
C133        C  0.82083409  0.75519936  0.19049372     0.10900
C134        C  0.77891987  0.78152952  0.27924746    -0.52600
C135        C  0.81246793  0.81362361  0.25853069     0.11500
H136        H  0.68399475  0.79134348  0.20494860     0.16000
H137        H  0.83829745  0.83883186  0.18636984     0.01700
H138        H  0.78929377  0.68052061  0.20627651     0.16300
H139        H  0.77473136  0.77834129  0.31775715     0.16100
C140        C  0.25077823  0.74517577  0.23837501     0.87900
C141        C  0.21805677  0.71117746  0.20588524    -0.52400
C142        C  0.18958788  0.73880125  0.17485345     0.10800
C143        C  0.19726772  0.79736588  0.17874511     0.21800
C144        C  0.28184109  0.77768991  0.20378287    -0.53100
C145        C  0.25369150  0.80547306  0.17272895     0.10900
C146        C  0.21444702  0.78363111  0.26276862    -0.52600
C147        C  0.18632718  0.81100000  0.23106325     0.11500
H148        H  0.21711687  0.66938200  0.20757526     0.16000
H149        H  0.17454260  0.81948958  0.15304054     0.01700
H150        H  0.32230280  0.77921360  0.20425617     0.16300
H151        H  0.21083704  0.78785138  0.30128162     0.16100
N152        N  0.98945622  0.70632363  0.07705700    -0.35200
N153        N  0.91298495  0.68535146  0.00524599    -0.55800
N154        N  0.98833526  0.70408851  0.93186783    -0.35200
N155        N  0.06673260  0.71392099  0.00314224    -0.55800
C156        C  0.95101220  0.69119952  0.10493564     0.28400
C157        C  0.03114589  0.70440020  0.10393397     0.28400
C158        C  0.95001513  0.68703231  0.90494258     0.28400
C159        C  0.02945457  0.70342749  0.90380313     0.28400
C160        C  0.88343965  0.69185131  0.04415321     0.37000
C161        C  0.88299417  0.68981329  0.96681334     0.37000
C162        C  0.09319124  0.72918516  0.04173546     0.37000
C163        C  0.09206026  0.73041886  0.96430212     0.37000
C164        C  0.96844427  0.67947613  0.15010945    -0.20500
C165        C  0.01906533  0.68785294  0.14949078    -0.20500
C166        C  0.96705874  0.67489256  0.85928107    -0.20500
C167        C  0.01727312  0.68539459  0.85851987    -0.20500
C168        C  0.83433470  0.69911263  0.03038132    -0.21600
C169        C  0.83406176  0.69780735  0.98136310    -0.21500
C170        C  0.13620217  0.75411084  0.02731990    -0.21600
C171        C  0.13540812  0.75516985  0.97824762    -0.21500
C172        C  0.90013104  0.69186553  0.09194355    -0.16900
C173        C  0.07890375  0.72135950  0.08984010    -0.16900
C174        C  0.07636114  0.72350713  0.91649265    -0.16900
C175        C  0.89927328  0.68799830  0.91875384    -0.16900
H176        H  0.94675607  0.66697806  0.18056191     0.16000
H177        H  0.04406039  0.68311127  0.17938561     0.16000
H178        H  0.94519586  0.66140627  0.82926350     0.16000
H179        H  0.04183405  0.68142142  0.82785000     0.16000
H180        H  0.80213778  0.70571426  0.05315844     0.14300
H181        H  0.80164887  0.70319347  0.95906433     0.14300
H182        H  0.16470857  0.77044240  0.04994410     0.14300
H183        H  0.16327415  0.77261578  0.95557113     0.14300
H184        H  0.98670003  0.72114676  0.04298409     0.27600
H185        H  0.98567111  0.72005855  0.96585564     0.27600
C186        C  0.25567459  0.25653568  0.24457573     0.87900
C187        C  0.27882012  0.21768392  0.20908082    -0.52400
C188        C  0.24410524  0.18741894  0.18678577     0.10800
C189        C  0.19019728  0.19916778  0.20212528     0.21800
C190        C  0.21798901  0.28729288  0.21527712    -0.53100
C191        C  0.18364927  0.25720364  0.19267914     0.10900
C192        C  0.22474880  0.22394398  0.27910982    -0.52600
C193        C  0.19024450  0.19390177  0.25687266     0.11500
H194        H  0.31868511  0.21413348  0.20300726     0.16000
H195        H  0.16314579  0.17384214  0.18351775     0.01700
H196        H  0.21959274  0.32885085  0.21112312     0.16300
H197        H  0.23034392  0.22379790  0.31755010     0.16100
N198        N  0.92764077  0.99353404  0.30647836    -0.35200
N199        N  0.99834412  0.07744743  0.30203200    -0.55800
N200        N  0.08295736  0.00529503  0.29787929    -0.35200
N201        N  0.01189606  0.92146996  0.29531840    -0.55800
C202        C  0.89692486  0.03426154  0.29913946     0.28400
C203        C  0.90406809  0.95100462  0.28965293     0.28400
C204        C  0.10453513  0.04870385  0.28128281     0.28400
C205        C  0.11262199  0.96518452  0.28471522     0.28400
C206        C  0.95707281  0.10499470  0.31377291     0.37000
C207        C  0.03675837  0.11091196  0.30298371     0.37000
C208        C  0.97372697  0.88782034  0.29828429     0.37000
C209        C  0.05413926  0.89356319  0.30079539     0.37000
C210        C  0.85275612  0.01723510  0.27907311    -0.20500
C211        C  0.85750487  0.96501368  0.27241199    -0.20500
C212        C  0.14886400  0.03590250  0.25799219    -0.20500
C213        C  0.15423326  0.98328226  0.26069829    -0.20500
C214        C  0.96941228  0.15602995  0.32261339    -0.21600
C215        C  0.01992100  0.15982900  0.31555067    -0.21500
C216        C  0.99174143  0.83838529  0.30555590    -0.21600
C217        C  0.04269534  0.84208900  0.30763221    -0.21500
C218        C  0.90791180  0.08661035  0.30897935    -0.16900
C219        C  0.92338590  0.89998953  0.28919920    -0.16900
C220        C  0.10275140  0.91262010  0.29318268    -0.16900
C221        C  0.08545037  0.09948971  0.28677927    -0.16900
H222        H  0.82087876  0.04017478  0.26874090     0.16000
H223        H  0.82981771  0.94072222  0.25567475     0.16000
H224        H  0.17455857  0.06152887  0.24024140     0.16000
H225        H  0.18454415  0.96080653  0.24533823     0.16000
H226        H  0.94429657  0.18763041  0.33111587     0.14300
H227        H  0.04162612  0.19484757  0.31799357     0.14300
H228        H  0.97036459  0.80320677  0.30814665     0.14300
H229        H  0.06844753  0.81021903  0.31167943     0.14300
H230        H  0.96238603  0.99469564  0.32271852     0.27600
H231        H  0.05039135  0.00309531  0.31805725     0.27600
N232        N  0.29092816  0.92820979  0.00076708    -0.35200
N233        N  0.30643686  0.00624505  0.92863645    -0.55800
N234        N  0.31449222  0.08628323  0.00303516    -0.35200
N235        N  0.29192575  0.00874123  0.07454682    -0.55800
C236        C  0.28078363  0.90087729  0.96051241     0.28400
C237        C  0.27007254  0.90282839  0.03779453     0.28400
C238        C  0.30812540  0.11559025  0.96376905     0.28400
C239        C  0.30380569  0.11650955  0.04155549     0.28400
C240        C  0.30990343  0.96396017  0.90012290     0.37000
C241        C  0.31799691  0.04692220  0.90107660     0.37000
C242        C  0.28666719  0.96711228  0.10264883     0.37000
C243        C  0.30161853  0.04894055  0.10410068     0.37000
C244        C  0.25410571  0.85704629  0.97224591    -0.20500
C245        C  0.24718216  0.85846363  0.02093488    -0.20500
C246        C  0.29446254  0.16523777  0.97766118    -0.20500
C247        C  0.29191573  0.16585189  0.02668151    -0.20500
C248        C  0.32361170  0.97784689  0.85421135    -0.21600
C249        C  0.32859040  0.03047310  0.85478763    -0.21500
C250        C  0.29288478  0.98088558  0.15025446    -0.21600
C251        C  0.30271977  0.03269659  0.15115887    -0.21500
C252        C  0.29557125  0.91387810  0.91355565    -0.16900
C253        C  0.27190764  0.91787171  0.08651685    -0.16900
C254        C  0.30371203  0.10093593  0.08980562    -0.16900
C255        C  0.31388633  0.09907179  0.91565840    -0.16900
H256        H  0.24067423  0.82724844  0.94825939     0.16000
H257        H  0.22770574  0.82995412  0.04165348     0.16000
H258        H  0.28625567  0.19758544  0.95485654     0.16000
H259        H  0.28119387  0.19864955  0.04875664     0.16000
H260        H  0.32796084  0.95287367  0.82319114     0.14300
H261        H  0.33779959  0.05409807  0.82436216     0.14300
H262        H  0.28971284  0.95634642  0.18116287     0.14300
H263        H  0.30843832  0.05602568  0.18296858     0.14300
H264        H  0.31251219  0.96122598  0.00299281     0.27600
H265        H  0.32642876  0.04818618  0.00363358     0.27600
N266        N  0.92059009  0.29613713  0.00369240    -0.35200
N267        N  0.99169052  0.29145846  0.08150437    -0.55800
N268        N  0.07422276  0.27203693  0.01433884    -0.35200
N269        N  0.00307647  0.27164802  0.93702627    -0.55800
C270        C  0.88974237  0.29280064  0.04206443     0.28400
C271        C  0.89517569  0.27800821  0.96534932     0.28400
C272        C  0.09575875  0.25841912  0.05600627     0.28400
C273        C  0.10288628  0.25254019  0.97837825     0.28400
C274        C  0.95151821  0.30866214  0.10638667     0.37000
C275        C  0.03019230  0.29152259  0.11237918     0.37000
C276        C  0.96498685  0.27582442  0.90586467     0.37000
C277        C  0.04542836  0.26898964  0.91050871     0.37000
C278        C  0.84375488  0.27426390  0.02757289    -0.20500
C279        C  0.84738745  0.26423081  0.97950082    -0.20500
C280        C  0.13935964  0.23109720  0.04638437    -0.20500
C281        C  0.14408836  0.22779618  0.99749902    -0.20500
C282        C  0.96470267  0.32011090  0.15316301    -0.21600
C283        C  0.01454627  0.30904190  0.15700181    -0.21500
C284        C  0.98312811  0.27590847  0.85940078    -0.21600
C285        C  0.03390118  0.27149528  0.86227185    -0.21500
C286        C  0.90201737  0.30497031  0.09005582    -0.16900
C287        C  0.91389996  0.27295746  0.91802481    -0.16900
C288        C  0.09317891  0.25693426  0.92883425    -0.16900
C289        C  0.07768592  0.27045126  0.10252031    -0.16900
H290        H  0.81114887  0.26719229  0.04944344     0.16000
H291        H  0.81814310  0.24746005  0.95797031     0.16000
H292        H  0.16518826  0.21500464  0.07186675     0.16000
H293        H  0.17426191  0.20868689  0.97843596     0.16000
H294        H  0.94039658  0.33266239  0.18207563     0.14300
H295        H  0.03644046  0.31197104  0.18930656     0.14300
H296        H  0.96182354  0.27720701  0.82667430     0.14300
H297        H  0.05883406  0.26810858  0.83190616     0.14300
H298        H  0.95668215  0.31057048  0.00358588     0.27600
H299        H  0.04246418  0.29458000  0.01064767     0.27600
C300        C  0.75350235  0.24238237  0.24266373     0.87900
C301        C  0.78583928  0.27045534  0.20544669    -0.52400
C302        C  0.81378512  0.23746486  0.17756216     0.10800
C303        C  0.80647706  0.18060486  0.18937260     0.21800
C304        C  0.72215712  0.20386215  0.21343815    -0.53100
C305        C  0.75042588  0.17133245  0.18562096     0.10900
C306        C  0.79057011  0.20888334  0.27102818    -0.52600
C307        C  0.81861295  0.17667362  0.24243786     0.11500
H308        H  0.78659247  0.31206695  0.20201771     0.16000
H309        H  0.82898419  0.15397684  0.16639061     0.01700
H310        H  0.68175471  0.20201484  0.21525332     0.16300
H311        H  0.79502365  0.21165904  0.30950936     0.16100
N312        N  0.67000382  0.07744389  0.00718548    -0.35200
N313        N  0.68069704  0.99764466  0.93273111    -0.55800
N314        N  0.68645723  0.91767859  0.00562830    -0.35200
N315        N  0.68452321  0.99768660  0.07985357    -0.55800
C316        C  0.67727366  0.10717921  0.96828095     0.28400
C317        C  0.67869419  0.10729268  0.04626133     0.28400
C318        C  0.69743075  0.88921770  0.96605379     0.28400
C319        C  0.69888751  0.88922883  0.04411848     0.28400
C320        C  0.67167852  0.03877552  0.90474095     0.37000
C321        C  0.67967048  0.95551673  0.90381720     0.37000
C322        C  0.67565815  0.03890545  0.10870205     0.37000
C323        C  0.68392677  0.95571267  0.10814882     0.37000
C324        C  0.68892514  0.15697336  0.98292152    -0.20500
C325        C  0.68988903  0.15703609  0.03199845    -0.20500
C326        C  0.71602033  0.84159104  0.97965423    -0.20500
C327        C  0.71689157  0.84158991  0.02878740    -0.20500
C328        C  0.66497017  0.02272985  0.85780410    -0.21600
C329        C  0.66992651  0.97001932  0.85722558    -0.21500
C330        C  0.66956685  0.02305531  0.15552712    -0.21600
C331        C  0.67479836  0.97041426  0.15518126    -0.21500
C332        C  0.67428417  0.09091590  0.91984465    -0.16900
C333        C  0.67769170  0.09106532  0.09446078    -0.16900
C334        C  0.69417769  0.90455150  0.09274494    -0.16900
C335        C  0.69106605  0.90456106  0.91795593    -0.16900
H336        H  0.69681186  0.18980263  0.96059948     0.16000
H337        H  0.69876831  0.18991877  0.05450635     0.16000
H338        H  0.72817672  0.81011799  0.95660967     0.16000
H339        H  0.72987938  0.81016554  0.05067416     0.16000
H340        H  0.65809561  0.04663890  0.82704870     0.14300
H341        H  0.66749755  0.94527943  0.82591150     0.14300
H342        H  0.66272961  0.04706046  0.18680290     0.14300
H343        H  0.67259452  0.94584579  0.18612746     0.14300
H344        H  0.65913340  0.03917824  0.00715506     0.27600
H345        H  0.67010382  0.95384624  0.00632109     0.27600
C346        C  0.68767779  0.13067665  0.13200091    -0.15000
C347        C  0.73153592  0.12938051  0.15472130    -0.30200
H348        H  0.66311591  0.16388668  0.13568144     0.14000
H349        H  0.75740901  0.09812214  0.14639727     0.14600
C350        C  0.86261283  0.29930735  0.12717715    -0.15000
C351        C  0.84975580  0.25139698  0.13970013    -0.30200
H352        H  0.84753495  0.33310873  0.14536692     0.14000
H353        H  0.86786396  0.21932214  0.12107530     0.14600
C354        C  0.85981906  0.14240476  0.25737654    -0.15000
C355        C  0.86762919  0.12535768  0.30178454    -0.30200
H356        H  0.88403525  0.12778441  0.22895099     0.14000
H357        H  0.84358386  0.13671521  0.33141118     0.14600
C358        C  0.10765431  0.25365568  0.14381734    -0.15000
C359        C  0.14921244  0.27836682  0.15672753    -0.30200
H360        H  0.09506476  0.22000636  0.16306089     0.14000
H361        H  0.15925403  0.31393297  0.13896143     0.14600
C362        C  0.29806019  0.14170340  0.12709527    -0.15000
C363        C  0.25513230  0.14586582  0.15169209    -0.30200
H364        H  0.32688887  0.17071412  0.13051054     0.14000
H365        H  0.22547347  0.11854739  0.14416754     0.14600
C366        C  0.11439014  0.14286587  0.26681100    -0.15000
C367        C  0.15959637  0.15599486  0.28273310    -0.30200
H368        H  0.09745850  0.16438806  0.23800231     0.14000
H369        H  0.17486402  0.13745415  0.31410230     0.14600
C370        C  0.15476474  0.71510026  0.14010965    -0.15000
C371        C  0.11254947  0.73966546  0.12821058    -0.30200
H372        H  0.16386418  0.67794027  0.12395720     0.14000
H373        H  0.10140149  0.77461269  0.14723979     0.14600
C374        C  0.25108408  0.88253661  0.12260905    -0.15000
C375        C  0.27569618  0.84041709  0.13697134    -0.30200
H376        H  0.21586243  0.89351772  0.13917507     0.14000
H377        H  0.31295924  0.83244540  0.12328370     0.14600
C378        C  0.14690916  0.84906595  0.24344317    -0.15000
C379        C  0.14370934  0.87467437  0.28527608    -0.30200
H380        H  0.11993768  0.85785104  0.21579486     0.14000
H381        H  0.17152246  0.86961515  0.31286097     0.14600
C382        C  0.86227986  0.74026011  0.15816791    -0.15000
C383        C  0.86213258  0.69771763  0.13044465    -0.30200
H384        H  0.89190808  0.76825898  0.15342031     0.14000
H385        H  0.83062267  0.67158922  0.13109543     0.14600
C386        C  0.70243109  0.86439655  0.12956982    -0.15000
C387        C  0.74395730  0.86434048  0.15627901    -0.30200
H388        H  0.67677930  0.83218448  0.13081801     0.14000
H389        H  0.77113865  0.89476786  0.15114988     0.14600
C390        C  0.84625842  0.84712711  0.28631804    -0.15000
C391        C  0.89197057  0.85781839  0.26963240    -0.30200
H392        H  0.83272262  0.86521334  0.31914710     0.14000
H393        H  0.90671787  0.83627079  0.23910538     0.14600
C394        C  0.11198080  0.13870522  0.75214561    -0.15000
C395        C  0.15513825  0.15307684  0.73194557    -0.30200
H396        H  0.09942978  0.15684021  0.78529586     0.14000
H397        H  0.16535848  0.13815176  0.69676820     0.14600
C398        C  0.26525541  0.13846076  0.85255704    -0.15000
C399        C  0.30747352  0.13832622  0.87799716    -0.30200
H400        H  0.23786776  0.10847286  0.85891593     0.14000
H401        H  0.33338249  0.17030177  0.87612226     0.14600
C402        C  0.15248056  0.26901722  0.86116475    -0.15000
C403        C  0.13238547  0.23859474  0.89472627    -0.30200
H404        H  0.14196401  0.30949832  0.86028757     0.14000
H405        H  0.14512768  0.19915594  0.89844063     0.14600
C406        C  0.15105085  0.72583183  0.86383019    -0.15000
C407        C  0.10668888  0.74517352  0.87722737    -0.30200
H408        H  0.16552230  0.69148188  0.88086301     0.14000
H409        H  0.09000671  0.77639098  0.85722972     0.14600
C410        C  0.12759839  0.87349776  0.70562600    -0.15000
C411        C  0.12576054  0.84507097  0.74538310    -0.30200
H412        H  0.16049116  0.87276397  0.68282452     0.14000
H413        H  0.09463430  0.85067544  0.76998052     0.14600
C414        C  0.24517591  0.86922587  0.85393434    -0.15000
C415        C  0.28946766  0.87439874  0.87530138    -0.30200
H416        H  0.21492815  0.89493590  0.86469817     0.14000
H417        H  0.31990372  0.84780404  0.86773300     0.14600
C418        C  0.68243664  0.13044727  0.88255846    -0.15000
C419        C  0.72896171  0.13829314  0.86636439    -0.30200
H420        H  0.65163888  0.15492640  0.87194809     0.14000
H421        H  0.75877334  0.11436956  0.88034699     0.14600
C422        C  0.85297990  0.15272878  0.75820279    -0.15000
C423        C  0.85925327  0.13315229  0.71397385    -0.30200
H424        H  0.87947579  0.14194729  0.78565799     0.14000
H425        H  0.83156319  0.13942894  0.68648989     0.14600
C426        C  0.83646775  0.27662928  0.86916514    -0.15000
C427        C  0.88001103  0.25401526  0.87989358    -0.30200
H428        H  0.82600572  0.31305974  0.88602414     0.14000
H429        H  0.89229109  0.22028122  0.85962133     0.14600
C430        C  0.74472513  0.86650856  0.85568412    -0.15000
C431        C  0.70142274  0.86535360  0.87992060    -0.30200
H432        H  0.77099298  0.89721118  0.86358377     0.14000
H433        H  0.67637823  0.83281066  0.87609065     0.14600
C434        C  0.86341865  0.74004994  0.85599031    -0.15000
C435        C  0.86167957  0.69613136  0.88078417    -0.30200
H436        H  0.89328424  0.76719808  0.86334477     0.14000
H437        H  0.82994875  0.67044859  0.87785399     0.14600
C438        C  0.87453292  0.86560039  0.69598700    -0.15000
C439        C  0.86165010  0.85831164  0.74185766    -0.30200
H440        H  0.86023875  0.84150855  0.66728191     0.14000
H441        H  0.87876092  0.88290986  0.76886189     0.14600
C442        C  0.64128350  0.64441792  0.65206575    -0.17100
C443        C  0.66707215  0.66842386  0.67959520     0.07000
C444        C  0.69896752  0.69740677  0.70962346     0.08800
C445        C  0.72650722  0.72316081  0.73405338    -0.18000
C446        C  0.63826287  0.36040827  0.65174135    -0.17100
C447        C  0.65911897  0.33424240  0.68100337     0.07000
C448        C  0.68442755  0.30235003  0.71371958     0.08800
C449        C  0.70799970  0.27560588  0.74056203    -0.18000
C450        C  0.27645332  0.72887811  0.73082152    -0.17100
C451        C  0.30444783  0.70405928  0.70557154     0.07000
C452        C  0.33635207  0.67464535  0.67539057     0.08800
C453        C  0.36245355  0.64964551  0.64848688    -0.18000
C454        C  0.71384419  0.71473124  0.26672443    -0.17100
C455        C  0.68734181  0.68817253  0.29106686     0.07000
C456        C  0.65877200  0.65969192  0.32395321     0.08800
C457        C  0.63626539  0.63732202  0.35476958    -0.18000
C458        C  0.28916489  0.28593261  0.73896391    -0.17100
C459        C  0.31576689  0.31214810  0.71425489     0.07000
C460        C  0.34550131  0.34128019  0.68262936     0.08800
C461        C  0.36942695  0.36494218  0.65357117    -0.18000
C462        C  0.36418497  0.64452356  0.36199383    -0.17100
C463        C  0.33876581  0.66687176  0.33312616     0.07000
C464        C  0.30783406  0.69307128  0.30017460     0.08800
C465        C  0.28158874  0.71593869  0.27234538    -0.18000
C466        C  0.64342338  0.36086983  0.35827504    -0.17100
C467        C  0.66786554  0.33591365  0.32972843     0.07000
C468        C  0.69751186  0.30495415  0.29840443     0.08800
C469        C  0.72300593  0.27734206  0.27297463    -0.18000
C470        C  0.29203680  0.28891870  0.26929734    -0.17100
C471        C  0.31942089  0.31469305  0.29353249     0.07000
C472        C  0.34863752  0.34316055  0.32591772     0.08800
C473        C  0.37151193  0.36601911  0.35625635    -0.18000
loop_ 
_geom_bond_atom_site_label_1 
_geom_bond_atom_site_label_2 
_geom_bond_distance 
_geom_bond_site_symmetry_2 
_ccdc_geom_bond_type 
N1            N2   1.324       .  A
N1            N7   1.317       .  A
N1          Mn30   2.218       .  S
N2            C9   1.354       .  A
N3            N5   1.316       .  A
N3            N4   1.321       .  A
N3          Mn19   2.202       .  S
N4           C10   1.350       .  A
N5            N6   1.322       .  A
N5          Mn30   2.207       .  S
N6           C10   1.352       .  A
N7            N8   1.321       .  A
N7          Mn19   2.207       .  S
N8            C9   1.351       .  A
C9          C462   1.445       .  S
C10         C453   1.438       .  S
N11          N17   1.317       .  A
N11          N12   1.322       .  A
N11         Mn41   2.209       .  S
N12          C20   1.352       .  A
N13          N14   1.320       .  A
N13          N15   1.316       .  A
N13         Mn19   2.199       .  S
N14          C21   1.350       .  A
N15          N16   1.320       .  A
N15         Mn41   2.197       .  S
N16          C21   1.350       .  A
N17          N18   1.321       .  A
N17         Mn19   2.205       .  S
N18          C20   1.351       .  A
Mn19        Cl43   2.547       .  S
C20         C461   1.439       .  S
C21         C473   1.431       .  S
N22          N23   1.322       .  A
N22          N28   1.318       .  A
N22         Mn30   2.214       .  S
N23          C31   1.352       .  A
N24          N26   1.317       .  A
N24          N25   1.321       .  A
N24         Mn42   2.204       .  S
N25          C32   1.350       .  A
N26          N27   1.321       .  A
N26         Mn30   2.204       .  S
N27          C32   1.351       .  A
N28          N29   1.321       .  A
N28         Mn42   2.204       .  S
N29          C31   1.350       .  A
Mn30        Cl43   2.552       .  S
C31         C442   1.439       .  S
C32         C457   1.435       .  S
N33          N34   1.323       .  A
N33          N39   1.316       .  A
N33         Mn41   2.215       .  S
N34          C44   1.353       .  A
N35          N36   1.323       .  A
N35          N37   1.316       .  A
N35         Mn42   2.213       .  S
N36          C45   1.354       .  A
N37          N38   1.320       .  A
N37         Mn41   2.198       .  S
N38          C45   1.349       .  A
N39          N40   1.322       .  A
N39         Mn42   2.207       .  S
N40          C44   1.352       .  A
Mn41        Cl43   2.551       .  S
Mn42        Cl43   2.549       .  S
C44         C466   1.444       .  S
C45         C446   1.439       .  S
C46          C47   1.538       .  S
C46          C52   1.542       .  S
C46          C50   1.538       .  S
C46         C445   1.471       .  S
C47          H54   1.086       .  S
C47          C48   1.367       .  D
C48          C49   1.531       .  S
C48         C434   1.474       .  S
C49          C53   1.529       .  S
C49          C51   1.532       .  S
C49          H55   1.112       .  S
C50          H56   1.086       .  S
C50          C51   1.367       .  D
C51         C430   1.482       .  S
C52          H57   1.085       .  S
C52          C53   1.368       .  D
C53         C439   1.479       .  S
C58          C59   1.541       .  S
C58          C64   1.536       .  S
C58          C62   1.538       .  S
C58         C449   1.471       .  S
C59          H66   1.085       .  S
C59          C60   1.369       .  D
C60          C61   1.529       .  S
C60         C422   1.481       .  S
C61          C65   1.537       .  S
C61          C63   1.535       .  S
C61          H67   1.110       .  S
C62          H68   1.085       .  S
C62          C63   1.370       .  D
C63         C419   1.483       .  S
C64          H69   1.086       .  S
C64          C65   1.362       .  D
C65         C426   1.479       .  S
C70          C71   1.537       .  S
C70          C76   1.540       .  S
C70          C74   1.536       .  S
C70         C450   1.470       .  S
C71          H78   1.086       .  S
C71          C72   1.369       .  D
C72          C73   1.532       .  S
C72         C414   1.478       .  S
C73          C77   1.530       .  S
C73          C75   1.538       .  S
C73          H79   1.110       .  S
C74          H80   1.086       .  S
C74          C75   1.364       .  D
C75         C406   1.480       .  S
C76          H81   1.086       .  S
C76          C77   1.367       .  D
C77         C411   1.479       .  S
C82          C83   1.538       .  S
C82          C88   1.535       .  S
C82          C86   1.536       .  S
C82         C458   1.471       .  S
C83          H90   1.086       .  S
C83          C84   1.368       .  D
C84          C85   1.541       .  S
C84         C402   1.486       .  S
C85          C89   1.538       .  S
C85          C87   1.532       .  S
C85          H91   1.107       .  S
C86          H92   1.086       .  S
C86          C87   1.368       .  D
C87         C398   1.475       .  S
C88          H93   1.086       .  S
C88          C89   1.362       .  D
C89         C395   1.481       .  S
N94          C99   1.354       .  A
N94          C98   1.354   1_545  A
N94         H126   1.035       .  S
N95         C102   1.352       .  A
N95         C103   1.351   1_655  A
N96         C101   1.356       .  A
N96         C100   1.356   1_545  A
N96         H127   1.037       .  S
N97         C104   1.353       .  A
N97         C105   1.352   1_655  A
C98         C106   1.389       .  A
C98         C114   1.419       .  A
C99         C115   1.415       .  A
C99         C107   1.387       .  A
C100        C108   1.388       .  A
C100        C117   1.418       .  A
C101        C116   1.419       .  A
C101        C109   1.388       .  A
C102        C114   1.412       .  A
C102        C110   1.386       .  A
C103        C117   1.414       .  A
C103        C111   1.387       .  A
C104        C112   1.386       .  A
C104        C115   1.415       .  A
C105        C113   1.386       .  A
C105        C116   1.412       .  A
C106        C107   1.371   1_565  A
C106        H118   1.082       .  S
C107        H119   1.082       .  S
C108        C109   1.373   1_565  A
C108        H120   1.083       .  S
C109        H121   1.082       .  S
C110        C111   1.373   1_655  A
C110        H122   1.082       .  S
C111        H123   1.082       .  S
C112        C113   1.371   1_655  A
C112        H124   1.082       .  S
C113        H125   1.083       .  S
C114        C438   1.487       .  S
C115        C423   1.488       .  S
C116        C394   1.486       .  S
C117        C410   1.487       .  S
C128        C129   1.536       .  S
C128        C134   1.535       .  S
C128        C132   1.537       .  S
C128        C454   1.467       .  S
C129        H136   1.085       .  S
C129        C130   1.370       .  D
C130        C131   1.538       .  S
C130        C387   1.486       .  S
C131        C135   1.537       .  S
C131        C133   1.532       .  S
C131        H137   1.111       .  S
C132        H138   1.086       .  S
C132        C133   1.369       .  D
C133        C382   1.477       .  S
C134        H139   1.087       .  S
C134        C135   1.360       .  D
C135        C390   1.476       .  S
C140        C141   1.540       .  S
C140        C146   1.543       .  S
C140        C144   1.535       .  S
C140        C465   1.477       .  S
C141        H148   1.086       .  S
C141        C142   1.366       .  D
C142        C143   1.537       .  S
C142        C370   1.482       .  S
C143        C147   1.528       .  S
C143        C145   1.537       .  S
C143        H149   1.109       .  S
C144        H150   1.086       .  S
C144        C145   1.364       .  D
C145        C375   1.479       .  S
C146        H151   1.085       .  S
C146        C147   1.370       .  D
C147        C378   1.481       .  S
N152        C157   1.352   1_655  A
N152        C156   1.352       .  A
N152        H184   1.035       .  S
N153        C160   1.351       .  A
N153        C161   1.352   1_554  A
N154        C159   1.350   1_655  A
N154        C158   1.351       .  A
N154        H185   1.035       .  S
N155        C162   1.352       .  A
N155        C163   1.353   1_554  A
C156        C164   1.386       .  A
C156        C172   1.414       .  A
C157        C173   1.412       .  A
C157        C165   1.386       .  A
C158        C166   1.387       .  A
C158        C175   1.413       .  A
C159        C174   1.409       .  A
C159        C167   1.387       .  A
C160        C172   1.412       .  A
C160        C168   1.387       .  A
C161        C175   1.411       .  A
C161        C169   1.386       .  A
C162        C170   1.385       .  A
C162        C173   1.414       .  A
C163        C171   1.386       .  A
C163        C174   1.414       .  A
C164        C165   1.376   1_655  A
C164        H176   1.082       .  S
C165        H177   1.082       .  S
C166        C167   1.375   1_655  A
C166        H178   1.082       .  S
C167        H179   1.083       .  S
C168        C169   1.371   1_554  A
C168        H180   1.082       .  S
C169        H181   1.082       .  S
C170        C171   1.374   1_554  A
C170        H182   1.080       .  S
C171        H183   1.082       .  S
C172        C383   1.485       .  S
C173        C371   1.481       .  S
C174        C407   1.481       .  S
C175        C435   1.485       .  S
C186        C187   1.534       .  S
C186        C192   1.533       .  S
C186        C190   1.532       .  S
C186        C470   1.461       .  S
C187        H194   1.085       .  S
C187        C188   1.369       .  D
C188        C189   1.534       .  S
C188        C363   1.478       .  S
C189        C193   1.539       .  S
C189        C191   1.541       .  S
C189        H195   1.109       .  S
C190        H196   1.087       .  S
C190        C191   1.363       .  D
C191        C359   1.478       .  S
C192        H197   1.087       .  S
C192        C193   1.361       .  D
C193        C367   1.477       .  S
N198        C203   1.355       .  A
N198        C202   1.355   1_565  A
N198        H230   1.039       .  S
N199        C206   1.352       .  A
N199        C207   1.350   1_655  A
N200        C205   1.354   1_545  A
N200        C204   1.354       .  A
N200        H231   1.040       .  S
N201        C208   1.351   1_455  A
N201        C209   1.352       .  A
C202        C210   1.385       .  A
C202        C218   1.415       .  A
C203        C219   1.419       .  A
C203        C211   1.390       .  A
C204        C212   1.390       .  A
C204        C221   1.418       .  A
C205        C220   1.412       .  A
C205        C213   1.386       .  A
C206        C218   1.411       .  A
C206        C214   1.386       .  A
C207        C221   1.409       .  A
C207        C215   1.386       .  A
C208        C216   1.386       .  A
C208        C219   1.411       .  A
C209        C217   1.386       .  A
C209        C220   1.412       .  A
C210        C211   1.371   1_545  A
C210        H222   1.082       .  S
C211        H223   1.081       .  S
C212        C213   1.375   1_545  A
C212        H224   1.082       .  S
C213        H225   1.083       .  S
C214        C215   1.372   1_655  A
C214        H226   1.082       .  S
C215        H227   1.083       .  S
C216        C217   1.372   1_655  A
C216        H228   1.083       .  S
C217        H229   1.082       .  S
C218        C355   1.489       .  S
C219        C391   1.485       .  S
C220        C379   1.486       .  S
C221        C366   1.482       .  S
N232        C237   1.353       .  A
N232        C236   1.353   1_554  A
N232        H264   1.037       .  S
N233        C240   1.351   1_545  A
N233        C241   1.350       .  A
N234        C239   1.354       .  A
N234        C238   1.354   1_554  A
N234        H265   1.038       .  S
N235        C242   1.350   1_545  A
N235        C243   1.350       .  A
C236        C244   1.387       .  A
C236        C252   1.415       .  A
C237        C253   1.415       .  A
C237        C245   1.386       .  A
C238        C246   1.388       .  A
C238        C255   1.415       .  A
C239        C254   1.413       .  A
C239        C247   1.387       .  A
C240        C252   1.411       .  A
C240        C248   1.386       .  A
C241        C255   1.412       .  A
C241        C249   1.386       .  A
C242        C250   1.386       .  A
C242        C253   1.409       .  A
C243        C251   1.387       .  A
C243        C254   1.412       .  A
C244        C245   1.374   1_556  A
C244        H256   1.082       .  S
C245        H257   1.079       .  S
C246        C247   1.373   1_556  A
C246        H258   1.082       .  S
C247        H259   1.083       .  S
C248        C249   1.372   1_565  A
C248        H260   1.082       .  S
C249        H261   1.082       .  S
C250        C251   1.371   1_565  A
C250        H262   1.083       .  S
C251        H263   1.082       .  S
C252        C415   1.483       .  S
C253        C374   1.480       .  S
C254        C362   1.484       .  S
C255        C399   1.484       .  S
N266        C271   1.355   1_554  A
N266        C270   1.355       .  A
N266        H298   1.039       .  S
N267        C274   1.351       .  A
N267        C275   1.350   1_655  A
N268        C273   1.355   1_554  A
N268        C272   1.354       .  A
N268        H299   1.038       .  S
N269        C276   1.351   1_455  A
N269        C277   1.354       .  A
C270        C278   1.387       .  A
C270        C286   1.416       .  A
C271        C287   1.418       .  A
C271        C279   1.389       .  A
C272        C280   1.389       .  A
C272        C289   1.417       .  A
C273        C288   1.417       .  A
C273        C281   1.389       .  A
C274        C286   1.410       .  A
C274        C282   1.387       .  A
C275        C289   1.409       .  A
C275        C283   1.386       .  A
C276        C284   1.385       .  A
C276        C287   1.413       .  A
C277        C285   1.388       .  A
C277        C288   1.417       .  A
C278        C279   1.370   1_554  A
C278        H290   1.082       .  S
C279        H291   1.081       .  S
C280        C281   1.374   1_554  A
C280        H292   1.083       .  S
C281        H293   1.082       .  S
C282        C283   1.371   1_655  A
C282        H294   1.082       .  S
C283        H295   1.083       .  S
C284        C285   1.369   1_655  A
C284        H296   1.083       .  S
C285        H297   1.081       .  S
C286        C350   1.486       .  S
C287        C427   1.486       .  S
C288        C403   1.489       .  S
C289        C358   1.480       .  S
C300        C301   1.542       .  S
C300        C306   1.546       .  S
C300        C304   1.539       .  S
C300        C469   1.476       .  S
C301        H308   1.085       .  S
C301        C302   1.370       .  D
C302        C303   1.528       .  S
C302        C351   1.478       .  S
C303        C307   1.526       .  S
C303        C305   1.527       .  S
C303        H309   1.112       .  S
C304        H310   1.086       .  S
C304        C305   1.366       .  D
C305        C347   1.475       .  S
C306        H311   1.085       .  S
C306        C307   1.370       .  D
C307        C354   1.481       .  S
N312        C317   1.354       .  A
N312        C316   1.355   1_554  A
N312        H344   1.036       .  S
N313        C320   1.352   1_565  A
N313        C321   1.353       .  A
N314        C319   1.355       .  A
N314        C318   1.354   1_554  A
N314        H345   1.034       .  S
N315        C322   1.352   1_565  A
N315        C323   1.353       .  A
C316        C324   1.388       .  A
C316        C332   1.417       .  A
C317        C333   1.417       .  A
C317        C325   1.388       .  A
C318        C326   1.388       .  A
C318        C335   1.418       .  A
C319        C334   1.418       .  A
C319        C327   1.387       .  A
C320        C332   1.414       .  A
C320        C328   1.386       .  A
C321        C335   1.417       .  A
C321        C329   1.387       .  A
C322        C330   1.386       .  A
C322        C333   1.416       .  A
C323        C331   1.386       .  A
C323        C334   1.416       .  A
C324        C325   1.373   1_556  A
C324        H336   1.083       .  S
C325        H337   1.082       .  S
C326        C327   1.375   1_556  A
C326        H338   1.083       .  S
C327        H339   1.083       .  S
C328        C329   1.373   1_545  A
C328        H340   1.082       .  S
C329        H341   1.082       .  S
C330        C331   1.372   1_545  A
C330        H342   1.082       .  S
C331        H343   1.082       .  S
C332        C418   1.487       .  S
C333        C346   1.487       .  S
C334        C386   1.490       .  S
C335        C431   1.488       .  S
C346        H348   1.086       .  S
C346        C347   1.341       .  D
C347        H349   1.088       .  S
C350        H352   1.084       .  S
C350        C351   1.341       .  D
C351        H353   1.088       .  S
C354        H356   1.088       .  S
C354        C355   1.341       .  D
C355        H357   1.085       .  S
C358        H360   1.085       .  S
C358        C359   1.337       .  D
C359        H361   1.087       .  S
C362        H364   1.085       .  S
C362        C363   1.341       .  D
C363        H365   1.087       .  S
C366        H368   1.086       .  S
C366        C367   1.338       .  D
C367        H369   1.087       .  S
C370        H372   1.086       .  S
C370        C371   1.342       .  D
C371        H373   1.086       .  S
C374        H376   1.086       .  S
C374        C375   1.341       .  D
C375        H377   1.087       .  S
C378        H380   1.087       .  S
C378        C379   1.341       .  D
C379        H381   1.085       .  S
C382        H384   1.087       .  S
C382        C383   1.342       .  D
C383        H385   1.086       .  S
C386        H388   1.085       .  S
C386        C387   1.345       .  D
C387        H389   1.087       .  S
C390        H392   1.086       .  S
C390        C391   1.341       .  D
C391        H393   1.087       .  S
C394        H396   1.086       .  S
C394        C395   1.341       .  D
C395        H397   1.087       .  S
C398        H400   1.087       .  S
C398        C399   1.341       .  D
C399        H401   1.086       .  S
C402        H404   1.087       .  S
C402        C403   1.345       .  D
C403        H405   1.084       .  S
C406        H408   1.087       .  S
C406        C407   1.339       .  D
C407        H409   1.086       .  S
C410        H412   1.086       .  S
C410        C411   1.342       .  D
C411        H413   1.087       .  S
C414        H416   1.087       .  S
C414        C415   1.339       .  D
C415        H417   1.085       .  S
C418        H420   1.085       .  S
C418        C419   1.342       .  D
C419        H421   1.087       .  S
C422        H424   1.087       .  S
C422        C423   1.342       .  D
C423        H425   1.085       .  S
C426        H428   1.086       .  S
C426        C427   1.342       .  D
C427        H429   1.086       .  S
C430        H432   1.087       .  S
C430        C431   1.342       .  D
C431        H433   1.086       .  S
C434        H436   1.088       .  S
C434        C435   1.341       .  D
C435        H437   1.086       .  S
C438        H440   1.085       .  S
C438        C439   1.343       .  D
C439        H441   1.088       .  S
C442        C443   1.207       .  T
C443        C444   1.415       .  S
C444        C445   1.207       .  T
C446        C447   1.208       .  T
C447        C448   1.415       .  S
C448        C449   1.208       .  T
C450        C451   1.207       .  T
C451        C452   1.414       .  S
C452        C453   1.207       .  T
C454        C455   1.205       .  T
C455        C456   1.411       .  S
C456        C457   1.205       .  T
C458        C459   1.208       .  T
C459        C460   1.415       .  S
C460        C461   1.207       .  T
C462        C463   1.211       .  T
C463        C464   1.421       .  S
C464        C465   1.211       .  T
C466        C467   1.211       .  T
C467        C468   1.420       .  S
C468        C469   1.211       .  T
C470        C471   1.202       .  T
C471        C472   1.406       .  S
C472        C473   1.202       .  T
