geometry optimzed in LAMMPS
_audit_creation_date              2020-12-01 
_audit_creation_method            'lammps2cif' 
_symmetry_space_group_name_H-M    'P1' 
_symmetry_Int_Tables_number       1 
_symmetry_cell_setting            triclinic 
loop_ 
_symmetry_equiv_pos_as_xyz 
  x,y,z 
_cell_length_a                    24.64422429 
_cell_length_b                    25.00566911815229 
_cell_length_c                    24.6682488250095 
_cell_angle_alpha                 89.39033659493319 
_cell_angle_beta                  89.76646419998357 
_cell_angle_gamma                 90.32054127024917 
loop_ 
_atom_site_label 
_atom_site_type_symbol 
_atom_site_fract_x 
_atom_site_fract_y 
_atom_site_fract_z 
_atom_site_charge 
O1          O  0.42487653  0.46818328  0.07583668    -0.79900
O2          O  0.13854276  0.03291841  0.04737920    -0.79900
O3          O  0.05240618  0.38756785  0.03180869    -0.79900
O4          O  0.44019712  0.07674255  0.06818063    -0.79800
O5          O  0.06203854  0.45809694  0.08188899    -0.80000
O6          O  0.36230814  0.05077815  0.03067917    -0.79900
O7          O  0.05964758  0.06558105  0.07521199    -0.79900
O8          O  0.43879583  0.39417980  0.03137798    -0.79900
C9          C  0.41882092  0.41802969  0.07226228     1.09800
C10         C  0.11200342  0.06631485  0.07593564     1.09700
C11         C  0.07030492  0.40891480  0.07497285     1.09800
C12         C  0.38760046  0.07931441  0.06506958     1.09700
O13         O  0.41400345  0.04431626  0.43443194    -0.79900
O14         O  0.11607433  0.44189908  0.47516754    -0.79900
O15         O  0.44728004  0.43094382  0.41548370    -0.79900
O16         O  0.06436771  0.10705314  0.46632189    -0.79900
O17         O  0.09662172  0.03125471  0.44486147    -0.79900
O18         O  0.38011000  0.45626846  0.46641374    -0.79900
O19         O  0.45784130  0.11375029  0.45939385    -0.79800
O20         O  0.05072486  0.42685792  0.41783122    -0.79900
Co21       Co  0.42578971  0.51159736  0.50387490     1.51500
Co22       Co  0.07738105  0.00050834  0.01230457     1.51700
Co23       Co  0.49815356  0.41582833  0.47424759     1.51600
Co24       Co  0.00652503  0.08068031  0.01365364     1.51500
O25         O  0.49975833  0.49539394  0.98810676    -1.41800
C26         C  0.42524384  0.09231353  0.42714974     1.09700
C27         C  0.09967538  0.42353342  0.43008129     1.09800
C28         C  0.39714888  0.43442046  0.42333245     1.09800
C29         C  0.09588891  0.07993481  0.43754767     1.09700
C30         C  0.22137103  0.21692204  0.28867913    -0.00800
C31         C  0.21353364  0.27925081  0.28670713    -0.02200
C32         C  0.21089307  0.27867919  0.22300578    -0.02200
C33         C  0.21937971  0.21577464  0.22539123    -0.02200
C34         C  0.28532548  0.22574691  0.28690245    -0.02200
C35         C  0.28308343  0.22347436  0.22293970    -0.02200
C36         C  0.27495020  0.28649044  0.21971185    -0.02200
C37         C  0.27721691  0.28828709  0.28352078    -0.02200
C38         C  0.21461775  0.14580033  0.36478118    -0.12000
C39         C  0.18861517  0.17500516  0.32317759     0.05000
C40         C  0.13187732  0.16496099  0.31753189    -0.07300
C41         C  0.10434675  0.13011438  0.35297924    -0.08000
C42         C  0.13051253  0.10450065  0.39518966    -0.02600
C43         C  0.18774887  0.10801022  0.39813080     0.04200
N44         N  0.21974364  0.07457800  0.43373043     0.66700
H45         H  0.25498544  0.15540661  0.37608732     0.15600
H46         H  0.06052310  0.12653096  0.34998010     0.15300
N47         N  0.09761288  0.19654848  0.28475387     0.74400
O48         O  0.19974709  0.03307960  0.45534776    -0.39000
O49         O  0.27064810  0.08037735  0.43520543    -0.38900
O50         O  0.07973627  0.17519144  0.24227491    -0.39700
O51         O  0.06596092  0.22666930  0.31056964    -0.39700
C52         C  0.18812556  0.32541712  0.13327665    -0.12000
C53         C  0.17109745  0.31306521  0.18645535     0.05000
C54         C  0.11734442  0.33161061  0.20017964    -0.07300
C55         C  0.08837180  0.36624911  0.16528783    -0.08000
C56         C  0.10620246  0.37796882  0.11323480    -0.02600
C57         C  0.15707994  0.35742043  0.09768997     0.04200
N58         N  0.18160242  0.37458447  0.04850267     0.66700
H59         H  0.22648377  0.31043930  0.11868883     0.15600
H60         H  0.04806024  0.37911788  0.17702296     0.15300
N61         N  0.08370083  0.30606754  0.23946810     0.74400
O62         O  0.20333626  0.42035626  0.04752292    -0.39000
O63         O  0.19633996  0.33999480  0.01473968    -0.38900
O64         O  0.07042991  0.33246594  0.28071381    -0.39700
O65         O  0.04818404  0.27504602  0.22028138    -0.39700
C66         C  0.29181570  0.17992537  0.13049805    -0.12000
C67         C  0.31398822  0.18587653  0.18282434     0.05000
C68         C  0.36473671  0.15949246  0.19211355    -0.07300
C69         C  0.38284257  0.12045705  0.15587045    -0.08000
C70         C  0.35829471  0.11252532  0.10559599    -0.02600
C71         C  0.31253530  0.14357637  0.09273392     0.04200
N72         N  0.28828459  0.14152458  0.04043942     0.66700
H73         H  0.25828101  0.20487506  0.11802856     0.15600
H74         H  0.42097256  0.10073442  0.16449332     0.15300
N75         N  0.40681207  0.18197603  0.22462485     0.74400
O76         O  0.23964095  0.12608936  0.03664611    -0.39000
O77         O  0.30928258  0.16832748  0.00204708    -0.38900
O78         O  0.42914205  0.15227315  0.25954862    -0.39700
O79         O  0.43681579  0.21635383  0.20140068    -0.39700
C80         C  0.17651852  0.08392618  0.15076780    -0.12000
C81         C  0.13915965  0.10320559  0.11355639     0.05000
C82         C  0.12469439  0.15735434  0.11537640    -0.07300
C83         C  0.14918891  0.19142770  0.15272043    -0.08000
C84         C  0.18810946  0.17362001  0.19052031    -0.02600
C85         C  0.19994049  0.11750543  0.18969365     0.04200
N86         N  0.23497948  0.09216920  0.22746620     0.66700
H87         H  0.18640992  0.04171669  0.15089218     0.15600
H88         H  0.13543550  0.23164932  0.15174493     0.15300
N89         N  0.08600239  0.17907144  0.07831367     0.74400
O90         O  0.27496278  0.06658416  0.20907393    -0.39000
O91         O  0.21463464  0.07664798  0.27183762    -0.38900
O92         O  0.03158350  0.18639503  0.60359576    -0.39700
O93         O  0.10248520  0.20102538  0.03498147    -0.39700
C94         C  0.38279575  0.39495189  0.33264103    -0.12000
C95         C  0.36101271  0.40934975  0.38296863     0.05000
C96         C  0.31016327  0.38935016  0.39742248    -0.07300
C97         C  0.28421222  0.35246188  0.36436325    -0.08000
C98         C  0.30672883  0.33356923  0.31548956    -0.02600
C99         C  0.35848746  0.35513027  0.30091518     0.04200
N100        N  0.39269698  0.32925797  0.26289130     0.66700
H101        H  0.42301428  0.40906806  0.32149432     0.15600
H102        H  0.25108073  0.33245785  0.38341436     0.15300
N103        N  0.28670533  0.40103152  0.44864908     0.74400
O104        O  0.42582977  0.35651734  0.23464772    -0.39000
O105        O  0.40248417  0.28067109  0.27122374    -0.38900
O106        O  0.24871259  0.43033668  0.95344761    -0.39700
O107        O  0.30146525  0.37038487  0.99091006    -0.39700
C108        C  0.33098841  0.13835345  0.31320945    -0.12000
C109        C  0.32714840  0.19373350  0.32219643     0.05000
C110        C  0.35957426  0.21358171  0.36581507    -0.07300
C111        C  0.39567140  0.18014368  0.39343458    -0.08000
C112        C  0.39643469  0.12519620  0.38579556    -0.02600
C113        C  0.36317132  0.10395961  0.34495598     0.04200
N114        N  0.36205435  0.04797794  0.33413719     0.66700
H115        H  0.30781290  0.12128950  0.28171804     0.15600
H116        H  0.41869921  0.19705865  0.42654987     0.15300
N117        N  0.35087170  0.26310394  0.39176768     0.74400
O118        O  0.31892208  0.02171418  0.34254175    -0.39000
O119        O  0.39903738  0.02801209  0.30535425    -0.38900
O120        O  0.31496073  0.26371969  0.42829844    -0.39700
O121        O  0.39155212  0.29340352  0.39752001    -0.39700
C122        C  0.13355705  0.33651839  0.40945049    -0.12000
C123        C  0.13261416  0.39002970  0.39547046     0.05000
C124        C  0.15075079  0.40626894  0.34399758    -0.07300
C125        C  0.17436776  0.36884331  0.30935313    -0.08000
C126        C  0.17802213  0.31415783  0.32363535    -0.02600
C127        C  0.15660356  0.29858285  0.37577272     0.04200
N128        N  0.16543776  0.24830220  0.40140996     0.66700
H129        H  0.11694884  0.32384414  0.44837813     0.15600
H130        H  0.18995842  0.38270329  0.27095937     0.15300
N131        N  0.14428732  0.46017553  0.32590584     0.74400
O132        O  0.12463982  0.22403581  0.42095283    -0.39000
O133        O  0.21048526  0.24121034  0.42424465    -0.38900
O134        O  0.18433514  0.49167289  0.32699521    -0.39700
O135        O  0.10222624  0.47328009  0.30007560    -0.39700
C136        C  0.35186044  0.30126410  0.14859321    -0.12000
C137        C  0.31045535  0.32389266  0.18080589     0.05000
C138        C  0.30690808  0.38097798  0.17736549    -0.07300
C139        C  0.34311402  0.41120116  0.14349870    -0.08000
C140        C  0.38402033  0.38676581  0.11224523    -0.02600
C141        C  0.38780577  0.33083627  0.11583651     0.04200
N142        N  0.43014009  0.30276398  0.08846653     0.66700
H143        H  0.36060502  0.26015796  0.14965808     0.15600
H144        H  0.33852239  0.45423559  0.14120156     0.15300
N145        N  0.26758785  0.40990686  0.20774697     0.74400
O146        O  0.47700286  0.30130607  0.10884668    -0.39000
O147        O  0.41857349  0.27211832  0.04981459    -0.38900
O148        O  0.28291070  0.43397192  0.24973993    -0.39700
O149        O  0.22618762  0.42710040  0.18338730    -0.39700
O150        O  0.42610727  0.46989433  0.57348611    -0.79900
O151        O  0.13527890  0.03438947  0.54941133    -0.79900
O152        O  0.05064065  0.38830382  0.53079682    -0.79900
O153        O  0.44243139  0.07492584  0.57061603    -0.79800
O154        O  0.06038243  0.45915205  0.58031404    -0.80000
O155        O  0.36435432  0.04863204  0.53400964    -0.79900
O156        O  0.05624923  0.06618115  0.57747658    -0.79900
O157        O  0.43931701  0.39631414  0.52849346    -0.79900
C158        C  0.41879540  0.41999922  0.56910128     1.09800
C159        C  0.10855884  0.06740648  0.57823412     1.09700
C160        C  0.06869721  0.40992434  0.57374304     1.09800
C161        C  0.38984653  0.07758683  0.56785595     1.09700
O162        O  0.41295127  0.04463633  0.93141183    -0.79900
O163        O  0.11838713  0.44196779  0.97704420    -0.79900
O164        O  0.44495588  0.42910268  0.91774756    -0.79900
O165        O  0.06653152  0.10736603  0.96406652    -0.79900
O166        O  0.10025603  0.03190746  0.94331290    -0.79900
O167        O  0.37795566  0.45410453  0.96923827    -0.79900
O168        O  0.45715625  0.11374812  0.95672893    -0.79800
O169        O  0.05348567  0.42660035  0.91919883    -0.79900
Co170      Co  0.42348418  0.50975646  0.00619639     1.51500
Co171      Co  0.07487158  0.00040348  0.51431258     1.51700
Co172      Co  0.49661933  0.41450563  0.97585830     1.51600
Co173      Co  0.00385217  0.08028775  0.51517913     1.51500
O174        O  0.50209240  0.49664658  0.48642987    -1.41800
C175        C  0.42494514  0.09244042  0.92397719     1.09700
C176        C  0.10242887  0.42350921  0.93183585     1.09800
C177        C  0.39491737  0.43347151  0.92548910     1.09800
C178        C  0.09877141  0.08059458  0.93567744     1.09700
C179        C  0.22398954  0.21930279  0.78737503    -0.00800
C180        C  0.21549421  0.28152980  0.78540581    -0.02200
C181        C  0.21064581  0.28080041  0.72190656    -0.02200
C182        C  0.21996185  0.21792007  0.72418950    -0.02200
C183        C  0.28782486  0.22877864  0.78371972    -0.02200
C184        C  0.28357342  0.22629898  0.71991661    -0.02200
C185        C  0.27448014  0.28928198  0.71646518    -0.02200
C186        C  0.27903170  0.29124496  0.78018519    -0.02200
C187        C  0.21785397  0.14643843  0.86248230    -0.12000
C188        C  0.19156842  0.17732228  0.82223701     0.05000
C189        C  0.13449109  0.16910605  0.81794577    -0.07300
C190        C  0.10684391  0.13374480  0.85273798    -0.08000
C191        C  0.13323826  0.10578369  0.89329118    -0.02600
C192        C  0.19062842  0.10834307  0.89542938     0.04200
N193        N  0.22218499  0.07367200  0.93014002     0.66700
H194        H  0.25894577  0.15454627  0.87253777     0.15600
H195        H  0.06286876  0.13164596  0.85076922     0.15300
N196        N  0.10048297  0.20357304  0.78805371     0.74400
O197        O  0.20373006  0.02878760  0.94496471    -0.39000
O198        O  0.27225838  0.08236449  0.93643530    -0.38900
O199        O  0.07766239  0.18403018  0.74704356    -0.39700
O200        O  0.07363018  0.23593798  0.81630891    -0.39700
C201        C  0.18571190  0.32511296  0.63162969    -0.12000
C202        C  0.16995402  0.31473077  0.68566509     0.05000
C203        C  0.11715221  0.33541018  0.70037465    -0.07300
C204        C  0.08782409  0.36908677  0.66474868    -0.08000
C205        C  0.10478758  0.37921776  0.61207589    -0.02600
C206        C  0.15511457  0.35767657  0.59615238     0.04200
N207        N  0.18015636  0.37523721  0.54724181     0.66700
H208        H  0.22322779  0.30873820  0.61648259     0.15600
H209        H  0.04810189  0.38320095  0.67697993     0.15300
N210        N  0.08432637  0.31350126  0.74258349     0.74400
O211        O  0.19941387  0.42208415  0.54593277    -0.39000
O212        O  0.19789982  0.34094169  0.51460671    -0.38900
O213        O  0.07405406  0.34281598  0.78259410    -0.39700
O214        O  0.04653917  0.28305915  0.72700913    -0.39700
C215        C  0.29146828  0.17737147  0.63032010    -0.12000
C216        C  0.31514665  0.18812827  0.68106567     0.05000
C217        C  0.36789585  0.16571157  0.68979355    -0.07300
C218        C  0.38725779  0.12559441  0.65544216    -0.08000
C219        C  0.36074260  0.11205445  0.60745889    -0.02600
C220        C  0.31264320  0.13939195  0.59470155     0.04200
N221        N  0.28487424  0.13014249  0.54523855     0.66700
H222        H  0.25609976  0.19943349  0.61740074     0.15600
H223        H  0.42704945  0.10913806  0.66359089     0.15300
N224        N  0.40921695  0.19231646  0.71992569     0.74400
O225        O  0.24829662  0.09471693  0.54476331    -0.39000
O226        O  0.28527970  0.16615323  0.50899420    -0.38900
O227        O  0.43179992  0.16697611  0.75805474    -0.39700
O228        O  0.43858776  0.22480479  0.69329751    -0.39700
C229        C  0.17485949  0.08561147  0.65134378    -0.12000
C230        C  0.13565220  0.10447579  0.61589346     0.05000
C231        C  0.12001478  0.15827174  0.61922169    -0.07300
C232        C  0.14578960  0.19255510  0.65564222    -0.08000
C233        C  0.18718650  0.17530484  0.69101507    -0.02600
C234        C  0.19953319  0.11929994  0.68938280     0.04200
N235        N  0.23674743  0.09422951  0.72513979     0.66700
H236        H  0.18559691  0.04361796  0.65056672     0.15600
H237        H  0.13097371  0.23245473  0.65619516     0.15300
N238        N  0.07866953  0.17940794  0.58476587     0.74400
O239        O  0.27610783  0.06921069  0.70469955    -0.39000
O240        O  0.21893808  0.07848601  0.77048383    -0.38900
O241        O  0.03798109  0.18696532  0.09412196    -0.39700
O242        O  0.09185574  0.20126884  0.54026962    -0.39700
C243        C  0.37953335  0.40203158  0.83169932    -0.12000
C244        C  0.35876216  0.41107724  0.88377588     0.05000
C245        C  0.30984522  0.38727626  0.89814669    -0.07300
C246        C  0.28658177  0.34961977  0.86443644    -0.08000
C247        C  0.30734864  0.33664372  0.81299119    -0.02600
C248        C  0.35616690  0.36379844  0.79721605     0.04200
N249        N  0.38951417  0.34495995  0.75423243     0.66700
H250        H  0.41845425  0.41942343  0.82065681     0.15600
H251        H  0.25682143  0.32534756  0.88359619     0.15300
N252        N  0.28592997  0.39629604  0.94965527     0.74400
O253        O  0.42193641  0.37642012  0.72992482    -0.39000
O254        O  0.39753681  0.29559140  0.75145600    -0.38900
O255        O  0.24404104  0.42839184  0.45011227    -0.39700
O256        O  0.30329750  0.37746772  0.49091404    -0.39700
C257        C  0.33332195  0.14069531  0.80863858    -0.12000
C258        C  0.33085406  0.19631226  0.81751294     0.05000
C259        C  0.36671242  0.21556394  0.85881305    -0.07300
C260        C  0.39981819  0.18059503  0.88808860    -0.08000
C261        C  0.39759695  0.12561379  0.88186436    -0.02600
C262        C  0.36451750  0.10536700  0.84045237     0.04200
N263        N  0.36257252  0.04949402  0.82920767     0.66700
H264        H  0.30974422  0.12422639  0.77724846     0.15600
H265        H  0.42500021  0.19736300  0.91971235     0.15300
N266        N  0.36930689  0.26871550  0.87763655     0.74400
O267        O  0.32034486  0.02301490  0.84098144    -0.39000
O268        O  0.39688087  0.03002370  0.79696419    -0.38900
O269        O  0.34669024  0.27708063  0.92275797    -0.39700
O270        O  0.41261529  0.29415144  0.86741558    -0.39700
C271        C  0.13526366  0.33622464  0.90932421    -0.12000
C272        C  0.13591760  0.39031343  0.89729073     0.05000
C273        C  0.15725582  0.40815545  0.84757433    -0.07300
C274        C  0.17900197  0.37113541  0.81131044    -0.08000
C275        C  0.18122917  0.31601660  0.82382867    -0.02600
C276        C  0.16045151  0.29934407  0.87589074     0.04200
N277        N  0.17342614  0.24997570  0.90202123     0.66700
H278        H  0.11743962  0.32264064  0.94738299     0.15600
H279        H  0.19567042  0.38573375  0.77366084     0.15300
N280        N  0.15853377  0.46368672  0.83400161     0.74400
O281        O  0.13556286  0.22430212  0.92530599    -0.39000
O282        O  0.22104961  0.24365252  0.91947310    -0.38900
O283        O  0.20202619  0.48955096  0.84049001    -0.39700
O284        O  0.12118907  0.48355955  0.80548565    -0.39700
C285        C  0.34456940  0.30377259  0.63892622    -0.12000
C286        C  0.30748341  0.32675474  0.67551245     0.05000
C287        C  0.30596939  0.38407113  0.67392870    -0.07300
C288        C  0.34315299  0.41397043  0.64073997    -0.08000
C289        C  0.38194973  0.38888065  0.60733632    -0.02600
C290        C  0.38094837  0.33266254  0.60641149     0.04200
N291        N  0.41753741  0.30320584  0.57298406     0.66700
H292        H  0.34854767  0.26163794  0.63465419     0.15600
H293        H  0.34098803  0.45726251  0.64067629     0.15300
N294        N  0.26754573  0.41337419  0.70509411     0.74400
O295        O  0.46565850  0.29568488  0.58846546    -0.39000
O296        O  0.39945307  0.27748186  0.53311377    -0.38900
O297        O  0.28448696  0.44105953  0.74406425    -0.39700
O298        O  0.22359247  0.42672834  0.68285245    -0.39700
O299        O  0.42398654  0.97029117  0.07363837    -0.79900
O300        O  0.13677142  0.53282046  0.05005707    -0.79900
O301        O  0.05346814  0.88775391  0.03014433    -0.79900
O302        O  0.44094711  0.57400344  0.07093184    -0.79800
O303        O  0.06362748  0.95849568  0.07976968    -0.80000
O304        O  0.36273975  0.54910212  0.03378465    -0.79900
O305        O  0.05792765  0.56571378  0.07747807    -0.79900
O306        O  0.43781207  0.89610456  0.02958136    -0.79900
C307        C  0.41776353  0.92014766  0.07023891     1.09800
C308        C  0.11028804  0.56635454  0.07843235     1.09700
C309        C  0.07160877  0.90923047  0.07312909     1.09800
C310        C  0.38852255  0.57783042  0.06763706     1.09700
O311        O  0.41575012  0.54542512  0.43198914    -0.79900
O312        O  0.11758760  0.94216246  0.47675323    -0.79900
O313        O  0.44682087  0.93046935  0.41652607    -0.79900
O314        O  0.06506971  0.60720208  0.46319653    -0.79900
O315        O  0.09809835  0.53129786  0.44353055    -0.79900
O316        O  0.37983563  0.95497883  0.46820221    -0.79900
O317        O  0.45954266  0.61463516  0.45772257    -0.79800
O318        O  0.05212743  0.92613643  0.41972810    -0.79900
Co319      Co  0.42522283  0.01015001  0.50603467     1.51500
Co320      Co  0.07593574  0.50024621  0.01462559     1.51700
Co321      Co  0.49820090  0.91528593  0.47472310     1.51600
Co322      Co  0.00534508  0.58045110  0.01527929     1.51500
O323        O  0.49972320  0.99661487  0.98656330    -1.41800
C324        C  0.42708872  0.59347450  0.42514650     1.09700
C325        C  0.10120834  0.92326421  0.43184838     1.09800
C326        C  0.39674903  0.93428532  0.42446009     1.09800
C327        C  0.09712780  0.57985161  0.43525042     1.09700
C328        C  0.22315089  0.71818221  0.28803870    -0.00800
C329        C  0.21461586  0.78048066  0.28618714    -0.02200
C330        C  0.21160534  0.77996392  0.22255427    -0.02200
C331        C  0.22079780  0.71711990  0.22477547    -0.02200
C332        C  0.28698559  0.72766104  0.28596565    -0.02200
C333        C  0.28440086  0.72545907  0.22204199    -0.02200
C334        C  0.27555848  0.78837390  0.21886257    -0.02200
C335        C  0.27821858  0.79011182  0.28266187    -0.02200
C336        C  0.21652808  0.64540810  0.36287673    -0.12000
C337        C  0.19057970  0.67567474  0.32200070     0.05000
C338        C  0.13381500  0.66621318  0.31627700    -0.07300
C339        C  0.10601858  0.63082344  0.35096189    -0.08000
C340        C  0.13198184  0.60414985  0.39267725    -0.02600
C341        C  0.18927705  0.60726203  0.39561973     0.04200
N342        N  0.22081585  0.57294765  0.43068469     0.66700
H343        H  0.25729665  0.65401148  0.37364090     0.15600
H344        H  0.06213849  0.62795736  0.34811037     0.15300
N345        N  0.09985838  0.69964059  0.28512315     0.74400
O346        O  0.20172320  0.52897837  0.44747178    -0.39000
O347        O  0.27120835  0.58078857  0.43557411    -0.38900
O348        O  0.07855073  0.67926131  0.24372114    -0.39700
O349        O  0.07154561  0.73164392  0.31236021    -0.39700
C350        C  0.18817612  0.82444044  0.13203830    -0.12000
C351        C  0.17166196  0.81392690  0.18577216     0.05000
C352        C  0.11860454  0.83420220  0.19983709    -0.07300
C353        C  0.08987021  0.86833642  0.16423532    -0.08000
C354        C  0.10723158  0.87826050  0.11165005    -0.02600
C355        C  0.15749843  0.85635344  0.09604517     0.04200
N356        N  0.18231914  0.87285986  0.04673923     0.66700
H357        H  0.22614903  0.80845348  0.11752467     0.15600
H358        H  0.05003862  0.88244028  0.17611257     0.15300
N359        N  0.08490636  0.81075209  0.24046563     0.74400
O360        O  0.20259135  0.91926249  0.04485523    -0.39000
O361        O  0.19887996  0.83785224  0.01425393    -0.38900
O362        O  0.07242790  0.83901672  0.28065556    -0.39700
O363        O  0.04863580  0.77958961  0.22295779    -0.39700
C364        C  0.29320347  0.68034319  0.13049743    -0.12000
C365        C  0.31573803  0.68787393  0.18238049     0.05000
C366        C  0.36719901  0.66289228  0.19165797    -0.07300
C367        C  0.38546452  0.62298381  0.15653494    -0.08000
C368        C  0.35998491  0.61270510  0.10716918    -0.02600
C369        C  0.31385066  0.64297458  0.09382263     0.04200
N370        N  0.28862113  0.63855284  0.04224834     0.66700
H371        H  0.25911827  0.70439508  0.11769975     0.15600
H372        H  0.42403518  0.60417280  0.16527670     0.15300
N373        N  0.40918695  0.68722762  0.22287638     0.74400
O374        O  0.24133937  0.61918150  0.04002408    -0.39000
O375        O  0.30586960  0.66734765  0.00348346    -0.38900
O376        O  0.43233257  0.65930704  0.25876414    -0.39700
O377        O  0.43821926  0.72144808  0.19820861    -0.39700
C378        C  0.17694978  0.58471942  0.15127309    -0.12000
C379        C  0.13771278  0.60347336  0.11574570     0.05000
C380        C  0.12282636  0.65750293  0.11809112    -0.07300
C381        C  0.14852271  0.69189397  0.15438335    -0.08000
C382        C  0.18916609  0.67458367  0.19055732    -0.02600
C383        C  0.20171867  0.61860987  0.18908767     0.04200
N384        N  0.23933582  0.59383625  0.22469689     0.66700
H385        H  0.18760118  0.54270151  0.15075911     0.15600
H386        H  0.13403254  0.73189520  0.15430564     0.15300
N387        N  0.08233701  0.67876617  0.08271833     0.74400
O388        O  0.27881133  0.56914431  0.20408987    -0.39000
O389        O  0.22198183  0.57800953  0.27018467    -0.38900
O390        O  0.03881664  0.69151781  0.59436992    -0.39700
O391        O  0.09672388  0.70222391  0.03942763    -0.39700
C392        C  0.38227973  0.89777481  0.33249086    -0.12000
C393        C  0.36050685  0.91093219  0.38323232     0.05000
C394        C  0.30977462  0.89057116  0.39728870    -0.07300
C395        C  0.28472268  0.85323358  0.36422447    -0.08000
C396        C  0.30712394  0.83556126  0.31483574    -0.02600
C397        C  0.35822470  0.85840241  0.30000340     0.04200
N398        N  0.39245344  0.83382483  0.26110245     0.66700
H399        H  0.42240009  0.91233580  0.32157117     0.15600
H400        H  0.25234225  0.83220531  0.38343775     0.15300
N401        N  0.28571971  0.90220184  0.44825322     0.74400
O402        O  0.42459728  0.86216049  0.23280126    -0.39000
O403        O  0.40336647  0.78534526  0.26854174    -0.38900
O404        O  0.24318078  0.92714553  0.94853224    -0.39700
O405        O  0.30231691  0.87641387  0.98990066    -0.39700
C406        C  0.33387093  0.64058934  0.31094560    -0.12000
C407        C  0.32936005  0.69577990  0.32076895     0.05000
C408        C  0.36203407  0.71541588  0.36433551    -0.07300
C409        C  0.39775936  0.68165443  0.39207332    -0.08000
C410        C  0.39844198  0.62674975  0.38406130    -0.02600
C411        C  0.36577581  0.60593987  0.34259084     0.04200
N412        N  0.36424037  0.55001024  0.33160971     0.66700
H413        H  0.31121229  0.62373621  0.27902193     0.15600
H414        H  0.42084383  0.69837083  0.42525777     0.15300
N415        N  0.35478310  0.76553910  0.38951846     0.74400
O416        O  0.32533318  0.52218231  0.34997358    -0.39000
O417        O  0.39270327  0.53200071  0.29337516    -0.38900
O418        O  0.32056303  0.76705166  0.42761822    -0.39700
O419        O  0.39601704  0.79548371  0.39301243    -0.39700
C420        C  0.13343450  0.83581806  0.40911333    -0.12000
C421        C  0.13432419  0.88987025  0.39703107     0.05000
C422        C  0.15491776  0.90737154  0.34686425    -0.07300
C423        C  0.17671620  0.87017507  0.31071707    -0.08000
C424        C  0.17921276  0.81508154  0.32355165    -0.02600
C425        C  0.15761927  0.79862970  0.37527838     0.04200
N426        N  0.16857916  0.74864797  0.40073720     0.66700
H427        H  0.11589097  0.82236101  0.44736077     0.15600
H428        H  0.19321471  0.88464836  0.27293975     0.15300
N429        N  0.15540413  0.96278442  0.33274128     0.74400
O430        O  0.12924599  0.72319877  0.42168205    -0.39000
O431        O  0.21492276  0.74211496  0.42107702    -0.38900
O432        O  0.19855515  0.98936497  0.33857509    -0.39700
O433        O  0.11700377  0.98223209  0.30535686    -0.39700
C434        C  0.35093455  0.80339390  0.14636096    -0.12000
C435        C  0.31019824  0.82593648  0.17938351     0.05000
C436        C  0.30636215  0.88298457  0.17584918    -0.07300
C437        C  0.34236670  0.91332909  0.14185266    -0.08000
C438        C  0.38297161  0.88892232  0.11017913    -0.02600
C439        C  0.38635015  0.83292640  0.11314833     0.04200
N440        N  0.42724621  0.80451924  0.08398722     0.66700
H441        H  0.35936720  0.76232046  0.14658445     0.15600
H442        H  0.33777531  0.95636757  0.13969215     0.15300
N443        N  0.26681538  0.91171178  0.20608386     0.74400
O444        O  0.47502069  0.80291741  0.10213034    -0.39000
O445        O  0.41370480  0.77378493  0.04603787    -0.38900
O446        O  0.28200675  0.93644359  0.24771840    -0.39700
O447        O  0.22493388  0.92788863  0.18182514    -0.39700
O448        O  0.42655964  0.96774370  0.57520742    -0.79900
O449        O  0.13579328  0.53276307  0.54785222    -0.79900
O450        O  0.05198902  0.88770480  0.53247377    -0.79900
O451        O  0.44248189  0.57646277  0.56864777    -0.79800
O452        O  0.06214162  0.95854894  0.58199177    -0.80000
O453        O  0.36475001  0.55029001  0.53091117    -0.79900
O454        O  0.05725471  0.56700175  0.57497595    -0.79900
O455        O  0.43996301  0.89451060  0.52953439    -0.79900
C456        C  0.41982141  0.91773861  0.57067098     1.09800
C457        C  0.10964263  0.56654164  0.57626691     1.09700
C458        C  0.07041611  0.90934060  0.57524857     1.09800
C459        C  0.38982708  0.57845313  0.56569105     1.09700
O460        O  0.41268421  0.54320224  0.93418592    -0.79900
O461        O  0.11897169  0.94167567  0.97456781    -0.79900
O462        O  0.44579944  0.93016976  0.91600961    -0.79900
O463        O  0.06585034  0.60713965  0.96645602    -0.79900
O464        O  0.09875213  0.53137110  0.94570008    -0.79900
O465        O  0.37822171  0.95559339  0.96640990    -0.79900
O466        O  0.45606137  0.61269259  0.95976004    -0.79800
O467        O  0.05336024  0.92710258  0.91743637    -0.79900
Co468      Co  0.42329486  0.01147961  0.00370290     1.51500
Co469      Co  0.07455478  0.50079405  0.51272740     1.51700
Co470      Co  0.49643151  0.91569702  0.97498730     1.51600
Co471      Co  0.00459019  0.58129342  0.51262153     1.51500
O472        O  0.50142842  0.99604389  0.48757378    -1.41800
C473        C  0.42406517  0.59116182  0.92695994     1.09700
C474        C  0.10227386  0.92324238  0.92960891     1.09800
C475        C  0.39567562  0.93400855  0.92330027     1.09800
C476        C  0.09777668  0.58001161  0.93813334     1.09700
C477        C  0.22264063  0.71638322  0.78776690    -0.00800
C478        C  0.21474060  0.77869513  0.78563072    -0.02200
C479        C  0.21159149  0.77809741  0.72196797    -0.02200
C480        C  0.22008485  0.71515896  0.72449616    -0.02200
C481        C  0.28656435  0.72540398  0.78548670    -0.02200
C482        C  0.28381337  0.72297004  0.72159395    -0.02200
C483        C  0.27558746  0.78598576  0.71815691    -0.02200
C484        C  0.27837134  0.78790853  0.78193970    -0.02200
C485        C  0.21644092  0.64493587  0.86412289    -0.12000
C486        C  0.19015773  0.67446586  0.82278608     0.05000
C487        C  0.13325939  0.66494020  0.81801401    -0.07300
C488        C  0.10587511  0.63041292  0.85383236    -0.08000
C489        C  0.13227707  0.60449515  0.89565852    -0.02600
C490        C  0.18956388  0.60754178  0.89805955     0.04200
N491        N  0.22146351  0.57435828  0.93406064     0.66700
H492        H  0.25706520  0.65409006  0.87484006     0.15600
H493        H  0.06199514  0.62712353  0.85127601     0.15300
N494        N  0.09883840  0.69638971  0.78529423     0.74400
O495        O  0.20189568  0.53219198  0.95472527    -0.39000
O496        O  0.27211973  0.58136450  0.93713129    -0.38900
O497        O  0.08057503  0.67471844  0.74314181    -0.39700
O498        O  0.06740528  0.72668062  0.81116900    -0.39700
C499        C  0.18877542  0.82597982  0.63259709    -0.12000
C500        C  0.17178639  0.81285296  0.68567873     0.05000
C501        C  0.11794568  0.83095317  0.69955987    -0.07300
C502        C  0.08869787  0.86567644  0.66498610    -0.08000
C503        C  0.10670428  0.87854386  0.61325323    -0.02600
C504        C  0.15783203  0.85868171  0.59752678     0.04200
N505        N  0.18233604  0.87659550  0.54849808     0.66700
H506        H  0.22696390  0.81103617  0.61761461     0.15600
H507        H  0.04820936  0.87797098  0.67676446     0.15300
N508        N  0.08469853  0.80525369  0.73905737     0.74400
O509        O  0.20370414  0.92255632  0.54779609    -0.39000
O510        O  0.19692050  0.84255901  0.51408753    -0.38900
O511        O  0.07178425  0.83158208  0.78046350    -0.39700
O512        O  0.04909330  0.77414357  0.72016314    -0.39700
C513        C  0.29207233  0.67699075  0.63054720    -0.12000
C514        C  0.31492988  0.68499969  0.68222596     0.05000
C515        C  0.36656122  0.66036750  0.69137100    -0.07300
C516        C  0.38543005  0.62112188  0.65578946    -0.08000
C517        C  0.36011821  0.61103156  0.60633516    -0.02600
C518        C  0.31299644  0.64000997  0.59374449     0.04200
N519        N  0.28622209  0.63374586  0.54320375     0.66700
H520        H  0.25771150  0.70063106  0.61779116     0.15600
H521        H  0.42444399  0.60302409  0.66413123     0.15300
N522        N  0.40825400  0.68482114  0.72277472     0.74400
O523        O  0.24517860  0.60349435  0.54151947    -0.39000
O524        O  0.29285366  0.66896333  0.50671735    -0.38900
O525        O  0.43059723  0.65725558  0.75944962    -0.39700
O526        O  0.43794016  0.71833396  0.69785506    -0.39700
C527        C  0.17454428  0.58329324  0.65122513    -0.12000
C528        C  0.13732205  0.60297424  0.61401819     0.05000
C529        C  0.12382782  0.65735217  0.61555375    -0.07300
C530        C  0.14897868  0.69120994  0.65262937    -0.08000
C531        C  0.18800518  0.67311438  0.69018022    -0.02600
C532        C  0.19903389  0.61683373  0.68959247     0.04200
N533        N  0.23479258  0.59144388  0.72665149     0.66700
H534        H  0.18387671  0.54095795  0.65146403     0.15600
H535        H  0.13599663  0.73164261  0.65125793     0.15300
N536        N  0.08579229  0.67960588  0.57813604     0.74400
O537        O  0.27472284  0.56635238  0.70746217    -0.39000
O538        O  0.21522433  0.57543670  0.77120089    -0.38900
O539        O  0.03450348  0.68445982  0.10006911    -0.39700
O540        O  0.10259285  0.69779894  0.53320134    -0.39700
C541        C  0.38208356  0.89626563  0.83156433    -0.12000
C542        C  0.36006619  0.90952326  0.88220138     0.05000
C543        C  0.30979350  0.88834037  0.89644556    -0.07300
C544        C  0.28495637  0.85093381  0.86338111    -0.08000
C545        C  0.30730703  0.83345547  0.81398821    -0.02600
C546        C  0.35832954  0.85655800  0.79915869     0.04200
N547        N  0.39252905  0.83225471  0.76003226     0.66700
H548        H  0.42202941  0.91125983  0.82060479     0.15600
H549        H  0.25285641  0.82968031  0.88261836     0.15300
N550        N  0.28573775  0.89962081  0.94742948     0.74400
O551        O  0.42534476  0.86050676  0.73243368    -0.39000
O552        O  0.40203827  0.78332508  0.76601236    -0.38900
O553        O  0.24447235  0.93164029  0.44958476    -0.39700
O554        O  0.30139173  0.87822494  0.49063451    -0.39700
C555        C  0.33202970  0.63784019  0.81138415    -0.12000
C556        C  0.32869524  0.69331647  0.82032212     0.05000
C557        C  0.36201848  0.71303274  0.86337380    -0.07300
C558        C  0.39688679  0.67903882  0.89174890    -0.08000
C559        C  0.39625632  0.62403040  0.88493909    -0.02600
C560        C  0.36335174  0.60313859  0.84365832     0.04200
N561        N  0.36118205  0.54712804  0.83338330     0.66700
H562        H  0.30858821  0.62088033  0.77997643     0.15600
H563        H  0.42044195  0.69597317  0.92449181     0.15300
N564        N  0.35651397  0.76387940  0.88745779     0.74400
O565        O  0.31930222  0.52093462  0.84693060    -0.39000
O566        O  0.39381986  0.52748330  0.79958358    -0.38900
O567        O  0.32396507  0.76671517  0.92691129    -0.39700
O568        O  0.39845745  0.79305787  0.88877929    -0.39700
C569        C  0.13437937  0.83535829  0.90834536    -0.12000
C570        C  0.13458018  0.88913536  0.89496199     0.05000
C571        C  0.15413681  0.90574908  0.84414347    -0.07300
C572        C  0.17638897  0.86816353  0.80888991    -0.08000
C573        C  0.17939431  0.81341093  0.82275766    -0.02600
C574        C  0.15833242  0.79761820  0.87495938     0.04200
N575        N  0.17029775  0.74830465  0.90141879     0.66700
H576        H  0.11754327  0.82264646  0.94714791     0.15600
H577        H  0.19269924  0.88213550  0.77086520     0.15300
N578        N  0.15263191  0.96065806  0.82816733     0.74400
O579        O  0.13176348  0.72319532  0.92423370    -0.39000
O580        O  0.21733068  0.74232478  0.92033601    -0.38900
O581        O  0.19619832  0.98727827  0.82684185    -0.39700
O582        O  0.11080496  0.97912921  0.80553686    -0.39700
C583        C  0.34907586  0.80050254  0.64340846    -0.12000
C584        C  0.31047312  0.82346156  0.67865719     0.05000
C585        C  0.30866003  0.88073846  0.67687183    -0.07300
C586        C  0.34542155  0.91082409  0.64341892    -0.08000
C587        C  0.38411821  0.88606737  0.60968942    -0.02600
C588        C  0.38442034  0.82983894  0.60982189     0.04200
N589        N  0.42126899  0.80072604  0.57638335     0.66700
H590        H  0.35508810  0.75915538  0.64109055     0.15600
H591        H  0.34268779  0.95405221  0.64309683     0.15300
N592        N  0.27015321  0.90999650  0.70797719     0.74400
O593        O  0.46922174  0.79295952  0.59224856    -0.39000
O594        O  0.40338623  0.77508073  0.53636966    -0.38900
O595        O  0.28686990  0.93618267  0.74808704    -0.39700
O596        O  0.22735757  0.92541795  0.68486323    -0.39700
O597        O  0.92507262  0.46858218  0.07383316    -0.79900
O598        O  0.63562397  0.03396128  0.04710644    -0.79900
O599        O  0.55245328  0.38736211  0.03124464    -0.79900
O600        O  0.94302687  0.07532902  0.06900112    -0.79800
O601        O  0.56286614  0.45829295  0.08057917    -0.80000
O602        O  0.86519229  0.04941755  0.03146324    -0.79900
O603        O  0.55699330  0.06690398  0.07546912    -0.79900
O604        O  0.93895957  0.39513498  0.02862082    -0.79900
C605        C  0.91844585  0.41857238  0.06939006     1.09800
C606        C  0.60938636  0.06709354  0.07616952     1.09700
C607        C  0.57116678  0.40909767  0.07378898     1.09800
C608        C  0.89043574  0.07786572  0.06591963     1.09700
O609        O  0.91342394  0.04370560  0.43287029    -0.79900
O610        O  0.61866078  0.44157571  0.47494487    -0.79900
O611        O  0.94546222  0.43097700  0.41517617    -0.79900
O612        O  0.56572457  0.10738804  0.46547750    -0.79900
O613        O  0.59803608  0.03175759  0.44347340    -0.79900
O614        O  0.87807307  0.45614113  0.46595832    -0.79900
O615        O  0.95666385  0.11316416  0.45868881    -0.79800
O616        O  0.55297609  0.42645005  0.41792886    -0.79900
Co617      Co  0.92344543  0.51163494  0.50359626     1.51500
Co618      Co  0.57447914  0.00131808  0.01248543     1.51700
Co619      Co  0.99603645  0.41594840  0.47412825     1.51600
Co620      Co  0.50419692  0.08110727  0.01331971     1.51500
O621        O  0.00143430  0.49609563  0.98770953    -1.41800
C622        C  0.92477979  0.09169568  0.42573675     1.09700
C623        C  0.60198870  0.42290117  0.43003623     1.09800
C624        C  0.89535032  0.43490169  0.42259544     1.09800
C625        C  0.59727602  0.08049472  0.43646711     1.09700
C626        C  0.72316883  0.21716738  0.28692501    -0.00800
C627        C  0.71504031  0.27948175  0.28479610    -0.02200
C628        C  0.71159937  0.27868918  0.22121252    -0.02200
C629        C  0.72040723  0.21582393  0.22368285    -0.02200
C630        C  0.78709358  0.22636072  0.28444332    -0.02200
C631        C  0.78406903  0.22381339  0.22055564    -0.02200
C632        C  0.77546973  0.28678972  0.21705959    -0.02200
C633        C  0.77864329  0.28891017  0.28081895    -0.02200
C634        C  0.71652603  0.14533091  0.36276225    -0.12000
C635        C  0.69046258  0.17527078  0.32167873     0.05000
C636        C  0.63348772  0.16643658  0.31696146    -0.07300
C637        C  0.60576013  0.13186328  0.35252292    -0.08000
C638        C  0.63194384  0.10536675  0.39419092    -0.02600
C639        C  0.68931139  0.10815605  0.39668865     0.04200
N640        N  0.72100090  0.07503798  0.43291865     0.66700
H641        H  0.75731790  0.15406771  0.37325495     0.15600
H642        H  0.56184888  0.12910304  0.35000323     0.15300
N643        N  0.59948166  0.19909135  0.28502852     0.74400
O644        O  0.70125745  0.03301928  0.45368890    -0.39000
O645        O  0.77164211  0.08203344  0.43629673    -0.38900
O646        O  0.57955695  0.17818403  0.24322235    -0.39700
O647        O  0.56984560  0.23052232  0.31157389    -0.39700
C648        C  0.68792414  0.32359854  0.13079980    -0.12000
C649        C  0.67179632  0.31299957  0.18468531     0.05000
C650        C  0.61900401  0.33337779  0.19928138    -0.07300
C651        C  0.59043750  0.36825762  0.16441414    -0.08000
C652        C  0.60736336  0.37832005  0.11174027    -0.02600
C653        C  0.65715815  0.35593559  0.09525989     0.04200
N654        N  0.68128372  0.37209911  0.04539958     0.66700
H655        H  0.72549010  0.30717289  0.11577858     0.15600
H656        H  0.55077656  0.38247372  0.17672342     0.15300
N657        N  0.58516887  0.30902952  0.23922798     0.74400
O658        O  0.70004196  0.41904599  0.04220601    -0.39000
O659        O  0.69842313  0.33699835  0.01330347    -0.38900
O660        O  0.57214712  0.33652899  0.27980216    -0.39700
O661        O  0.54933967  0.27784470  0.22089515    -0.39700
C662        C  0.79261608  0.17728313  0.12969659    -0.12000
C663        C  0.81538828  0.18574786  0.18134765     0.05000
C664        C  0.86721273  0.16149343  0.19061268    -0.07300
C665        C  0.88622636  0.12197252  0.15539362    -0.08000
C666        C  0.86097934  0.11136643  0.10601026    -0.02600
C667        C  0.81392871  0.14031920  0.09302747     0.04200
N668        N  0.78821500  0.13478625  0.04183214     0.66700
H669        H  0.75816472  0.20072114  0.11677077     0.15600
H670        H  0.92525375  0.10400780  0.16395936     0.15300
N671        N  0.90882380  0.18641732  0.22178409     0.74400
O672        O  0.74324046  0.11061122  0.03996867    -0.39000
O673        O  0.80146469  0.16623586  0.00362226    -0.38900
O674        O  0.93113740  0.15934603  0.25884715    -0.39700
O675        O  0.93856450  0.21957762  0.19645295    -0.39700
C676        C  0.67514130  0.08400908  0.15020993    -0.12000
C677        C  0.63708469  0.10353243  0.11379380     0.05000
C678        C  0.62308693  0.15774610  0.11579145    -0.07300
C679        C  0.64837264  0.19158803  0.15277684    -0.08000
C680        C  0.68824095  0.17368795  0.18954399    -0.02600
C681        C  0.69984444  0.11753211  0.18842186     0.04200
N682        N  0.73636705  0.09224919  0.22480503     0.66700
H683        H  0.68495676  0.04178541  0.14997559     0.15600
H684        H  0.63435014  0.23169372  0.15241743     0.15300
N685        N  0.58423958  0.17980320  0.07906815     0.74400
O686        O  0.77621932  0.06753515  0.20494795    -0.39000
O687        O  0.71768945  0.07607890  0.26968123    -0.38900
O688        O  0.53652752  0.18529154  0.59523330    -0.39700
O689        O  0.60050677  0.20244596  0.03599730    -0.39700
C690        C  0.88123816  0.39858491  0.33032987    -0.12000
C691        C  0.85955209  0.41090959  0.38134987     0.05000
C692        C  0.80952695  0.38922487  0.39564346    -0.07300
C693        C  0.78518075  0.35149054  0.36261390    -0.08000
C694        C  0.80725808  0.33478897  0.31280855    -0.02600
C695        C  0.85762753  0.35909322  0.29751910     0.04200
N696        N  0.89159390  0.33626710  0.25725023     0.66700
H697        H  0.92090338  0.41421556  0.31924983     0.15600
H698        H  0.75362284  0.32963724  0.38197995     0.15300
N699        N  0.78533666  0.40031571  0.44663771     0.74400
O700        O  0.92410849  0.36548399  0.23032749    -0.39000
O701        O  0.90076927  0.28707130  0.26080539    -0.38900
O702        O  0.74345501  0.43171881  0.94661294    -0.39700
O703        O  0.80107103  0.38049701  0.98942570    -0.39700
C704        C  0.83252710  0.13861525  0.31032677    -0.12000
C705        C  0.82943469  0.19416876  0.31907998     0.05000
C706        C  0.86350723  0.21390747  0.36152346    -0.07300
C707        C  0.89805698  0.17972079  0.39014657    -0.08000
C708        C  0.89703540  0.12464810  0.38364208    -0.02600
C709        C  0.86385941  0.10380838  0.34253183     0.04200
N710        N  0.86144739  0.04774599  0.33235588     0.66700
H711        H  0.80898982  0.12169000  0.27902116     0.15600
H712        H  0.92205895  0.19671068  0.42253627     0.15300
N713        N  0.85974056  0.26548206  0.38429436     0.74400
O714        O  0.81909857  0.02182971  0.34497389    -0.39000
O715        O  0.89512123  0.02752436  0.29994598    -0.38900
O716        O  0.82911472  0.26974319  0.42512417    -0.39700
O717        O  0.90212450  0.29407409  0.38289157    -0.39700
C718        C  0.63449433  0.33521698  0.40792544    -0.12000
C719        C  0.63468617  0.38916395  0.39516359     0.05000
C720        C  0.65452292  0.40628218  0.34457073    -0.07300
C721        C  0.67662311  0.36897774  0.30882440    -0.08000
C722        C  0.67978702  0.31409319  0.32223266    -0.02600
C723        C  0.65908367  0.29792792  0.37443873     0.04200
N724        N  0.67230730  0.24888196  0.40084649     0.66700
H725        H  0.61751688  0.32208148  0.44652118     0.15600
H726        H  0.69284631  0.38327942  0.27087225     0.15300
N727        N  0.65365754  0.46143749  0.32944312     0.74400
O728        O  0.63463526  0.22320541  0.42443809    -0.39000
O729        O  0.71993543  0.24327856  0.41841937    -0.38900
O730        O  0.69489274  0.48997585  0.33846432    -0.39700
O731        O  0.61756078  0.47836050  0.29755570    -0.39700
C732        C  0.84850436  0.30138925  0.14222436    -0.12000
C733        C  0.80947574  0.32422373  0.17700649     0.05000
C734        C  0.80664704  0.38140414  0.17448358    -0.07300
C735        C  0.84317602  0.41162712  0.14099422    -0.08000
C736        C  0.88263188  0.38698112  0.10810872    -0.02600
C737        C  0.88374284  0.33077846  0.10873704     0.04200
N738        N  0.92154757  0.30182165  0.07619854     0.66700
H739        H  0.85530243  0.25998275  0.14062402     0.15600
H740        H  0.83981055  0.45481465  0.14010547     0.15300
N741        N  0.76746367  0.41037262  0.20500313     0.74400
O742        O  0.96991887  0.29662070  0.09189431    -0.39000
O743        O  0.90453857  0.27421391  0.03716247    -0.38900
O744        O  0.78326731  0.43619693  0.24571680    -0.39700
O745        O  0.72504392  0.42580535  0.18119994    -0.39700
O746        O  0.92408307  0.47010172  0.57332205    -0.79900
O747        O  0.63758579  0.03357566  0.54751964    -0.79900
O748        O  0.55278449  0.38808893  0.53076475    -0.79900
O749        O  0.94008451  0.07478946  0.56982003    -0.79800
O750        O  0.56303300  0.45894772  0.58015652    -0.80000
O751        O  0.86229182  0.04957361  0.53193646    -0.79900
O752        O  0.55893037  0.06562678  0.57640654    -0.79900
O753        O  0.93727382  0.39626329  0.52853215    -0.79900
C754        C  0.91745282  0.42002518  0.56946826     1.09800
C755        C  0.61125468  0.06674377  0.57649924     1.09700
C756        C  0.57108068  0.40972635  0.57358373     1.09800
C757        C  0.88765128  0.07816275  0.56624700     1.09700
O758        O  0.91556571  0.04505049  0.93214728    -0.79900
O759        O  0.61670599  0.44245846  0.97457303    -0.79900
O760        O  0.94752711  0.43043789  0.91576146    -0.79900
O761        O  0.56475113  0.10762063  0.96421879    -0.79900
O762        O  0.59668524  0.03173749  0.94283231    -0.79900
O763        O  0.88001985  0.45565774  0.96641855    -0.79900
O764        O  0.95870089  0.11447454  0.95816433    -0.79800
O765        O  0.55053010  0.42584011  0.91860092    -0.79900
Co766      Co  0.92504253  0.51078037  0.00453006     1.51500
Co767      Co  0.57649543  0.00043004  0.51282965     1.51700
Co768      Co  0.99809127  0.41532503  0.97492310     1.51600
Co769      Co  0.50568978  0.08041940  0.51500972     1.51500
O770        O  0.99983881  0.49677638  0.48615706    -1.41800
C771        C  0.92637342  0.09323614  0.92550503     1.09700
C772        C  0.59985725  0.42360797  0.92988763     1.09800
C773        C  0.89733639  0.43440805  0.92314567     1.09800
C774        C  0.59622752  0.08043304  0.93545056     1.09700
C775        C  0.72241789  0.21816452  0.78742623    -0.00800
C776        C  0.71424476  0.28050768  0.78548861    -0.02200
C777        C  0.71137558  0.27993882  0.72185528    -0.02200
C778        C  0.72024758  0.21708160  0.72414589    -0.02200
C779        C  0.78634581  0.22736586  0.78549909    -0.02200
C780        C  0.78389352  0.22514338  0.72153778    -0.02200
C781        C  0.77531782  0.28811224  0.71829186    -0.02200
C782        C  0.77787976  0.28989498  0.78208032    -0.02200
C783        C  0.71555111  0.14607147  0.86290314    -0.12000
C784        C  0.68964161  0.17591759  0.82165384     0.05000
C785        C  0.63284662  0.16625079  0.81601194    -0.07300
C786        C  0.60510499  0.13122905  0.85114292    -0.08000
C787        C  0.63108562  0.10501128  0.89311253    -0.02600
C788        C  0.68837794  0.10820992  0.89606016     0.04200
N789        N  0.72006124  0.07436366  0.93154108     0.66700
H790        H  0.75621347  0.15495798  0.87379394     0.15600
H791        H  0.56125335  0.12802749  0.84816105     0.15300
N792        N  0.59876859  0.19855945  0.78376879     0.74400
O793        O  0.70007039  0.03222630  0.95182472    -0.39000
O794        O  0.77083824  0.08068424  0.93427559    -0.38900
O795        O  0.57977293  0.17760877  0.74155766    -0.39700
O796        O  0.56819837  0.22930169  0.81009817    -0.39700
C797        C  0.68841695  0.32583626  0.63184466    -0.12000
C798        C  0.67160204  0.31422879  0.68527527     0.05000
C799        C  0.61827990  0.33369959  0.69931815    -0.07300
C800        C  0.58946452  0.36819007  0.66419469    -0.08000
C801        C  0.60703460  0.37905028  0.61188091    -0.02600
C802        C  0.65764915  0.35800434  0.59620896     0.04200
N803        N  0.68231098  0.37495436  0.54695497     0.66700
H804        H  0.72645552  0.31021948  0.61713579     0.15600
H805        H  0.54938530  0.38164246  0.67604319     0.15300
N806        N  0.58455654  0.30902438  0.73913377     0.74400
O807        O  0.70357200  0.42095085  0.54559303    -0.39000
O808        O  0.69759031  0.34021327  0.51357858    -0.38900
O809        O  0.57155699  0.33620523  0.77993577    -0.39700
O810        O  0.54873127  0.27797581  0.72056724    -0.39700
C811        C  0.79250211  0.18041001  0.62974761    -0.12000
C812        C  0.81493825  0.18741564  0.68178114     0.05000
C813        C  0.86597200  0.16173709  0.69115113    -0.07300
C814        C  0.88385837  0.12179382  0.65586761    -0.08000
C815        C  0.85872917  0.11239092  0.60611120    -0.02600
C816        C  0.81298084  0.14322675  0.59278620     0.04200
N817        N  0.78818053  0.13981514  0.54090291     0.66700
H818        H  0.75884298  0.20502869  0.61693283     0.15600
H819        H  0.92215907  0.10248664  0.66468804     0.15300
N820        N  0.90824510  0.18567586  0.72227454     0.74400
O821        O  0.74028255  0.12208316  0.53810014    -0.39000
O822        O  0.80674288  0.16825903  0.50247363    -0.38900
O823        O  0.93109110  0.15760257  0.75823305    -0.39700
O824        O  0.93761236  0.21954517  0.69748498    -0.39700
C825        C  0.67693615  0.08490771  0.65015577    -0.12000
C826        C  0.63873769  0.10389660  0.61365963     0.05000
C827        C  0.62426125  0.15806403  0.61544850    -0.07300
C828        C  0.64935726  0.19234988  0.65223355    -0.08000
C829        C  0.68887886  0.17475521  0.68950984    -0.02600
C830        C  0.70103744  0.11869938  0.68847256     0.04200
N831        N  0.73751603  0.09373156  0.72510953     0.66700
H832        H  0.68713740  0.04277090  0.65009580     0.15600
H833        H  0.63540698  0.23252686  0.65147902     0.15300
N834        N  0.58477210  0.17954831  0.57908648     0.74400
O835        O  0.77718053  0.06852291  0.70553586    -0.39000
O836        O  0.71882905  0.07818934  0.77016988    -0.38900
O837        O  0.53600424  0.18662838  0.09476678    -0.39700
O838        O  0.60043135  0.20363964  0.53659701    -0.39700
C839        C  0.88309499  0.39676622  0.83156821    -0.12000
C840        C  0.86124249  0.41056620  0.88205086     0.05000
C841        C  0.81010876  0.39096759  0.89594180    -0.07300
C842        C  0.78461516  0.35381670  0.86296324    -0.08000
C843        C  0.80714023  0.33534980  0.81396671    -0.02600
C844        C  0.85858345  0.35756086  0.79918800     0.04200
N845        N  0.89233251  0.33287612  0.75996750     0.66700
H846        H  0.92338288  0.41088978  0.82068288     0.15600
H847        H  0.75165937  0.33355832  0.88205961     0.15300
N848        N  0.78565460  0.40359753  0.94645799     0.74400
O849        O  0.92477996  0.36096086  0.73175148    -0.39000
O850        O  0.90223515  0.28409567  0.76663647    -0.38900
O851        O  0.74327978  0.42861563  0.44792113    -0.39700
O852        O  0.80163793  0.37674366  0.48900960    -0.39700
C853        C  0.83279148  0.14010688  0.81120513    -0.12000
C854        C  0.82844943  0.19539705  0.82067098     0.05000
C855        C  0.86083143  0.21506688  0.86445655    -0.07300
C856        C  0.89631120  0.18133029  0.89259692    -0.08000
C857        C  0.89740700  0.12645967  0.88446970    -0.02600
C858        C  0.86487816  0.10556982  0.84289974     0.04200
N859        N  0.86413855  0.04972124  0.83149027     0.66700
H860        H  0.81008378  0.12314472  0.77933255     0.15600
H861        H  0.91910368  0.19808525  0.92596024     0.15300
N862        N  0.85365587  0.26538002  0.88927474     0.74400
O863        O  0.82300040  0.02218796  0.84461163    -0.39000
O864        O  0.89741990  0.03143532  0.79749900    -0.38900
O865        O  0.81909969  0.26737755  0.92703659    -0.39700
O866        O  0.89505303  0.29507371  0.89295171    -0.39700
C867        C  0.63260913  0.33641394  0.90774153    -0.12000
C868        C  0.63286643  0.39028993  0.89499184     0.05000
C869        C  0.65327898  0.40750698  0.84465965    -0.07300
C870        C  0.67580149  0.37018223  0.80913498    -0.08000
C871        C  0.67866111  0.31522762  0.82250339    -0.02600
C872        C  0.65691156  0.29905548  0.87424475     0.04200
N873        N  0.66764362  0.24921028  0.90005763     0.66700
H874        H  0.61529227  0.32323282  0.94619204     0.15600
H875        H  0.69252009  0.38448014  0.77141025     0.15300
N876        N  0.65275537  0.46270957  0.82966938     0.74400
O877        O  0.62814493  0.22404192  0.92105917    -0.39000
O878        O  0.71384568  0.24279540  0.92073787    -0.38900
O879        O  0.69424818  0.49091845  0.83859132    -0.39700
O880        O  0.61680347  0.47989077  0.79775960    -0.39700
C881        C  0.84970489  0.30304889  0.64476726    -0.12000
C882        C  0.80993998  0.32574069  0.67882142     0.05000
C883        C  0.80686599  0.38291297  0.67602987    -0.07300
C884        C  0.84295523  0.41318171  0.64204794    -0.08000
C885        C  0.88249658  0.38861680  0.60919382    -0.02600
C886        C  0.88462766  0.33247276  0.61093388     0.04200
N887        N  0.92340544  0.30366631  0.57941993     0.66700
H888        H  0.85755983  0.26179668  0.64433802     0.15600
H889        H  0.83913534  0.45632367  0.64071272     0.15300
N890        N  0.76793580  0.41185846  0.70686705     0.74400
O891        O  0.97184135  0.30030912  0.59544064    -0.39000
O892        O  0.90737863  0.27441522  0.54121604    -0.38900
O893        O  0.78396528  0.43695537  0.74796595    -0.39700
O894        O  0.72567547  0.42798153  0.68324140    -0.39700
O895        O  0.92718338  0.96871548  0.07322288    -0.79900
O896        O  0.63604540  0.53351934  0.04704653    -0.79900
O897        O  0.55127517  0.88870279  0.03160146    -0.79900
O898        O  0.94137485  0.57474276  0.06980563    -0.79800
O899        O  0.56131557  0.95997174  0.08043759    -0.80000
O900        O  0.86378589  0.54956576  0.03130609    -0.79900
O901        O  0.55758460  0.56549673  0.07679056    -0.79900
O902        O  0.94007154  0.89520857  0.02789273    -0.79900
C903        C  0.92020138  0.91873716  0.06892928     1.09800
C904        C  0.60993656  0.56646143  0.07644669     1.09700
C905        C  0.56967075  0.91073661  0.07415985     1.09800
C906        C  0.88888656  0.57776819  0.06606635     1.09700
O907        O  0.91300139  0.54500296  0.43148922    -0.79900
O908        O  0.61849416  0.94222488  0.47439022    -0.79900
O909        O  0.94642564  0.92947146  0.41681791    -0.79900
O910        O  0.56729102  0.60714615  0.46465755    -0.79900
O911        O  0.59993874  0.53135785  0.44345929    -0.79900
O912        O  0.87861185  0.95452476  0.46720431    -0.79900
O913        O  0.95775756  0.61406980  0.45594704    -0.79800
O914        O  0.55245077  0.92701376  0.41788940    -0.79900
Co915      Co  0.92344336  0.01024044  0.50503770     1.51500
Co916      Co  0.57475801  0.50046472  0.01291352     1.51700
Co917      Co  0.99716978  0.91494312  0.47587812     1.51600
Co918      Co  0.50402455  0.57983580  0.01550206     1.51500
O919        O  0.00244015  0.99639449  0.98610214    -1.41800
C920        C  0.92517138  0.59269593  0.42365269     1.09700
C921        C  0.60166357  0.92393538  0.42938715     1.09800
C922        C  0.89621784  0.93336749  0.42393407     1.09800
C923        C  0.59901734  0.58005123  0.43599827     1.09700
C924        C  0.72262901  0.71819309  0.28593326    -0.00800
C925        C  0.71466027  0.78059327  0.28378046    -0.02200
C926        C  0.71182992  0.77990785  0.22008173    -0.02200
C927        C  0.72040672  0.71695654  0.22265157    -0.02200
C928        C  0.78655598  0.72727435  0.28387114    -0.02200
C929        C  0.78405973  0.72484352  0.22002388    -0.02200
C930        C  0.77583017  0.78785285  0.21654908    -0.02200
C931        C  0.77835586  0.78980513  0.28033872    -0.02200
C932        C  0.71693826  0.64700730  0.36253018    -0.12000
C933        C  0.69048676  0.67577800  0.32074343     0.05000
C934        C  0.63384395  0.66485076  0.31531253    -0.07300
C935        C  0.60686955  0.62982441  0.35104921    -0.08000
C936        C  0.63338429  0.60472648  0.39334956    -0.02600
C937        C  0.69056888  0.60897227  0.39614953     0.04200
N938        N  0.72286631  0.57604020  0.43197958     0.66700
H939        H  0.75718020  0.65725806  0.37383182     0.15600
H940        H  0.56311026  0.62551500  0.34806391     0.15300
N941        N  0.59902120  0.69526698  0.28195654     0.74400
O942        O  0.70392319  0.53327683  0.45195514    -0.39000
O943        O  0.77339423  0.58384659  0.43529965    -0.38900
O944        O  0.58249542  0.67332985  0.23923805    -0.39700
O945        O  0.56595831  0.72434801  0.30724806    -0.39700
C946        C  0.68921897  0.82923061  0.13139282    -0.12000
C947        C  0.67194347  0.81474923  0.18404043     0.05000
C948        C  0.61768480  0.83155481  0.19775339    -0.07300
C949        C  0.58798921  0.86622436  0.16348994    -0.08000
C950        C  0.60629735  0.88045244  0.11219550    -0.02600
C951        C  0.65801434  0.86199702  0.09665250     0.04200
N952        N  0.68232342  0.88056502  0.04774771     0.66700
H953        H  0.72767153  0.81506656  0.11634412     0.15600
H954        H  0.54711495  0.87743340  0.17507711     0.15300
N955        N  0.58486684  0.80474045  0.23681880     0.74400
O956        O  0.70258164  0.92701702  0.04698598    -0.39000
O957        O  0.69758791  0.84690233  0.01326350    -0.38900
O958        O  0.57176942  0.83009686  0.27879580    -0.39700
O959        O  0.54966534  0.77352313  0.21738455    -0.39700
C960        C  0.79269353  0.67897519  0.12894375    -0.12000
C961        C  0.81513312  0.68665668  0.18085242     0.05000
C962        C  0.86622971  0.66121942  0.19059029    -0.07300
C963        C  0.88438159  0.62113003  0.15567233    -0.08000
C964        C  0.85945936  0.61139413  0.10593340    -0.02600
C965        C  0.81336060  0.64156756  0.09242918     0.04200
N966        N  0.78794561  0.63673389  0.04099189     0.66700
H967        H  0.75905938  0.70339507  0.11573872     0.15600
H968        H  0.92281724  0.60214428  0.16463837     0.15300
N969        N  0.90838198  0.68551838  0.22157683     0.74400
O970        O  0.74191633  0.61460856  0.03890769    -0.39000
O971        O  0.80281471  0.66742932  0.00274356    -0.38900
O972        O  0.93095687  0.65787227  0.25804178    -0.39700
O973        O  0.93802590  0.71885337  0.19637317    -0.39700
C974        C  0.67428330  0.58412777  0.15122510    -0.12000
C975        C  0.63783552  0.60350400  0.11324614     0.05000
C976        C  0.62581324  0.65823279  0.11272007    -0.07300
C977        C  0.65135652  0.69266697  0.14900764    -0.08000
C978        C  0.68896282  0.67467653  0.18806412    -0.02600
C979        C  0.69911205  0.61815926  0.18882424     0.04200
N980        N  0.73444629  0.59282696  0.22628444     0.66700
H981        H  0.68281188  0.54162654  0.15263509     0.15600
H982        H  0.64007470  0.73351044  0.14558889     0.15300
N983        N  0.58922639  0.68022687  0.07377607     0.74400
O984        O  0.77456083  0.56781732  0.20735500    -0.39000
O985        O  0.71417927  0.57619083  0.27029949    -0.38900
O986        O  0.53547581  0.68358198  0.59500532    -0.39700
O987        O  0.60820491  0.70271290  0.03177605    -0.39700
C988        C  0.88269953  0.89697502  0.33156919    -0.12000
C989        C  0.86055476  0.90978630  0.38225037     0.05000
C990        C  0.80972541  0.88932124  0.39570105    -0.07300
C991        C  0.78475748  0.85241928  0.36211233    -0.08000
C992        C  0.80734759  0.83512390  0.31273356    -0.02600
C993        C  0.85861591  0.85810501  0.29837433     0.04200
N994        N  0.89250650  0.83473202  0.25838970     0.66700
H995        H  0.92286678  0.91168377  0.32104846     0.15600
H996        H  0.75221985  0.83135283  0.38090344     0.15300
N997        N  0.78524179  0.90064644  0.44647698     0.74400
O998        O  0.92543163  0.86352313  0.23149321    -0.39000
O999        O  0.90131952  0.78550271  0.26241507    -0.38900
O1000       O  0.74537157  0.93175877  0.94838264    -0.39700
O1001       O  0.80291122  0.87910330  0.98949131    -0.39700
C1002       C  0.83162598  0.63952431  0.30964186    -0.12000
C1003       C  0.82880060  0.69501806  0.31838119     0.05000
C1004       C  0.86292132  0.71470628  0.36072946    -0.07300
C1005       C  0.89843984  0.68067996  0.38829611    -0.08000
C1006       C  0.89737508  0.62560030  0.38167595    -0.02600
C1007       C  0.86342916  0.60471096  0.34123760     0.04200
N1008       N  0.86099651  0.54867741  0.33086009     0.66700
H1009       H  0.80749417  0.62269664  0.27880795     0.15600
H1010       H  0.92258697  0.69755060  0.42063852     0.15300
N1011       N  0.85686548  0.76509691  0.38560913     0.74400
O1012       O  0.81826077  0.52293044  0.34247604    -0.39000
O1013       O  0.89506072  0.52852019  0.29881440    -0.38900
O1014       O  0.82315805  0.76733408  0.42412842    -0.39700
O1015       O  0.89869215  0.79431609  0.38843574    -0.39700
C1016       C  0.63332420  0.83650460  0.40635162    -0.12000
C1017       C  0.63426614  0.89047960  0.39409547     0.05000
C1018       C  0.65428294  0.90771530  0.34356825    -0.07300
C1019       C  0.67602786  0.87034104  0.30753314    -0.08000
C1020       C  0.67897853  0.81535386  0.32081954    -0.02600
C1021       C  0.65730577  0.79913136  0.37262033     0.04200
N1022       N  0.66853977  0.74948137  0.39860410     0.66700
H1023       H  0.61597624  0.82323876  0.44475393     0.15600
H1024       H  0.69273288  0.88472999  0.26978606     0.15300
N1025       N  0.65468323  0.96307500  0.32915677     0.74400
O1026       O  0.62923044  0.72398865  0.41957396    -0.39000
O1027       O  0.71471781  0.74377556  0.41962331    -0.38900
O1028       O  0.69608303  0.99086347  0.33965378    -0.39700
O1029       O  0.61958174  0.98107246  0.29676179    -0.39700
C1030       C  0.85008431  0.80204067  0.14264334    -0.12000
C1031       C  0.81091704  0.82515961  0.17715772     0.05000
C1032       C  0.80880209  0.88241121  0.17485664    -0.07300
C1033       C  0.84545899  0.91233249  0.14118630    -0.08000
C1034       C  0.88459710  0.88740351  0.10813422    -0.02600
C1035       C  0.88558922  0.83121436  0.10914626     0.04200
N1036       N  0.92360904  0.80204087  0.07706075     0.66700
H1037       H  0.85674402  0.76075289  0.14125659     0.15600
H1038       H  0.84244014  0.95553981  0.14029736     0.15300
N1039       N  0.77036923  0.91180497  0.20594372     0.74400
O1040       O  0.97159014  0.79609245  0.09364714    -0.39000
O1041       O  0.90693818  0.77476555  0.03764383    -0.38900
O1042       O  0.78704469  0.93719595  0.24659268    -0.39700
O1043       O  0.72807618  0.92820411  0.18259500    -0.39700
O1044       O  0.92388529  0.96862738  0.57463954    -0.79900
O1045       O  0.63794891  0.53331298  0.54805819    -0.79900
O1046       O  0.55354843  0.88768974  0.53048141    -0.79900
O1047       O  0.94055115  0.57746008  0.56760093    -0.79800
O1048       O  0.56375926  0.95833973  0.58028322    -0.80000
O1049       O  0.86255350  0.55087728  0.53071642    -0.79900
O1050       O  0.55898103  0.56567474  0.57584383    -0.79900
O1051       O  0.93838558  0.89490500  0.53004804    -0.79900
C1052       C  0.91769650  0.91853520  0.57063345     1.09800
C1053       C  0.61131119  0.56647911  0.57682471     1.09700
C1054       C  0.57184651  0.90914520  0.57337862     1.09800
C1055       C  0.88789555  0.57964250  0.56485923     1.09700
O1056       O  0.91534669  0.54479791  0.93257636    -0.79900
O1057       O  0.61651800  0.94260744  0.97534841    -0.79900
O1058       O  0.94796714  0.93063323  0.91480773    -0.79900
O1059       O  0.56386665  0.60738808  0.96621233    -0.79900
O1060       O  0.59557448  0.53188566  0.94322741    -0.79900
O1061       O  0.88091354  0.95573553  0.96602766    -0.79900
O1062       O  0.95806022  0.61421501  0.95923177    -0.79800
O1063       O  0.55103187  0.92636063  0.91850803    -0.79900
Co1064     Co  0.92623496  0.01091493  0.00390345     1.51500
Co1065     Co  0.57701104  0.50053433  0.51261650     1.51700
Co1066     Co  0.99875690  0.91555451  0.97364639     1.51600
Co1067     Co  0.50657672  0.58094110  0.51379161     1.51500
O1068       O  0.00006059  0.99576202  0.48823931    -1.41800
C1069       C  0.92617871  0.59299112  0.92611241     1.09700
C1070       C  0.60009497  0.92366744  0.93055202     1.09800
C1071       C  0.89788377  0.93458958  0.92253781     1.09800
C1072       C  0.59513843  0.58072452  0.93675668     1.09700
C1073       C  0.72212654  0.71808310  0.78873233    -0.00800
C1074       C  0.71418057  0.78042278  0.78641014    -0.02200
C1075       C  0.71064613  0.77937701  0.72284648    -0.02200
C1076       C  0.71930942  0.71649068  0.72551829    -0.02200
C1077       C  0.78606276  0.72700586  0.78618991    -0.02200
C1078       C  0.78298306  0.72428916  0.72223415    -0.02200
C1079       C  0.77456386  0.78727949  0.71865693    -0.02200
C1080       C  0.77778114  0.78954500  0.78241371    -0.02200
C1081       C  0.71489206  0.64578662  0.86390232    -0.12000
C1082       C  0.68904493  0.67650215  0.82333907     0.05000
C1083       C  0.63194068  0.66865337  0.81879164    -0.07300
C1084       C  0.60385395  0.63393168  0.85393260    -0.08000
C1085       C  0.62992496  0.60610404  0.89484030    -0.02600
C1086       C  0.68736807  0.60828769  0.89719812     0.04200
N1087       N  0.71892282  0.57397113  0.93237322     0.66700
H1088       H  0.75602615  0.65348199  0.87387046     0.15600
H1089       H  0.55988917  0.63197316  0.85167127     0.15300
N1090       N  0.59844284  0.70242721  0.78750418     0.74400
O1091       O  0.69858110  0.53217197  0.95299829    -0.39000
O1092       O  0.76977581  0.57978083  0.93490300    -0.38900
O1093       O  0.57777686  0.68244140  0.74559705    -0.39700
O1094       O  0.56989510  0.73448176  0.81446957    -0.39700
C1095       C  0.68730779  0.82296871  0.63188009    -0.12000
C1096       C  0.67095898  0.81332554  0.68586111     0.05000
C1097       C  0.61844189  0.83472917  0.70013293    -0.07300
C1098       C  0.59036072  0.86932510  0.66458531    -0.08000
C1099       C  0.60736805  0.87812993  0.61173381    -0.02600
C1100       C  0.65689378  0.85494211  0.59574285     0.04200
N1101       N  0.68134736  0.87023918  0.54581581     0.66700
H1102       H  0.72482043  0.80608499  0.61724364     0.15600
H1103       H  0.55096500  0.88442057  0.67664611     0.15300
N1104       N  0.58422197  0.81183286  0.74066410     0.74400
O1105       O  0.70226034  0.91630493  0.54281868    -0.39000
O1106       O  0.69672679  0.83454013  0.51352306    -0.38900
O1107       O  0.57172382  0.84046774  0.78057207    -0.39700
O1108       O  0.54770224  0.78100916  0.72306683    -0.39700
C1109       C  0.79060820  0.67866520  0.63066829    -0.12000
C1110       C  0.81365524  0.68620008  0.68239908     0.05000
C1111       C  0.86536826  0.66152104  0.69091430    -0.07300
C1112       C  0.88379757  0.62222257  0.65511073    -0.08000
C1113       C  0.85855661  0.61281963  0.60544159    -0.02600
C1114       C  0.81177261  0.64251236  0.59302485     0.04200
N1115       N  0.78686636  0.63950400  0.54116275     0.66700
H1116       H  0.75638474  0.70268776  0.61826284     0.15600
H1117       H  0.92265449  0.60375047  0.66332864     0.15300
N1118       N  0.90752392  0.68620751  0.72151183     0.74400
O1119       O  0.73951386  0.62042332  0.53816526    -0.39000
O1120       O  0.80424350  0.66954959  0.50343095    -0.38900
O1121       O  0.93050744  0.65893956  0.75800334    -0.39700
O1122       O  0.93668372  0.71975288  0.69600809    -0.39700
C1123       C  0.67614317  0.58426836  0.65155507    -0.12000
C1124       C  0.63824076  0.60334959  0.61475772     0.05000
C1125       C  0.62313629  0.65732557  0.61715070    -0.07300
C1126       C  0.64738082  0.69138135  0.65472878    -0.08000
C1127       C  0.68733810  0.67394072  0.69160716    -0.02600
C1128       C  0.69974013  0.61793124  0.69035930     0.04200
N1129       N  0.73599161  0.59292590  0.72723025     0.66700
H1130       H  0.68659239  0.54219935  0.65124257     0.15600
H1131       H  0.63272092  0.73133940  0.65469566     0.15300
N1132       N  0.58427548  0.67896241  0.58019181     0.74400
O1133       O  0.77567347  0.56756095  0.70788947    -0.39000
O1134       O  0.71707966  0.57757547  0.77227129    -0.38900
O1135       O  0.54053110  0.68843003  0.08712966    -0.39700
O1136       O  0.60056850  0.70321777  0.53801853    -0.39700
C1137       C  0.88309265  0.89692193  0.83094478    -0.12000
C1138       C  0.86158680  0.91069572  0.88163775     0.05000
C1139       C  0.81072853  0.89083787  0.89601842    -0.07300
C1140       C  0.78517698  0.85354635  0.86327900    -0.08000
C1141       C  0.80720308  0.83520808  0.81399353    -0.02600
C1142       C  0.85844834  0.85757005  0.79876679     0.04200
N1143       N  0.89194717  0.83276057  0.75938762     0.66700
H1144       H  0.92326677  0.91113863  0.81976749     0.15600
H1145       H  0.75271476  0.83305338  0.88280667     0.15300
N1146       N  0.78701177  0.90286336  0.94706926     0.74400
O1147       O  0.92482051  0.86055670  0.73138157    -0.39000
O1148       O  0.90097837  0.78375899  0.76551556    -0.38900
O1149       O  0.74475217  0.93107825  0.44766496    -0.39700
O1150       O  0.79991507  0.87583269  0.48873070    -0.39700
C1151       C  0.83277963  0.63989651  0.81166089    -0.12000
C1152       C  0.82840601  0.69516775  0.82120106     0.05000
C1153       C  0.86127468  0.71491354  0.86464169    -0.07300
C1154       C  0.89666045  0.68110970  0.89280270    -0.08000
C1155       C  0.89757332  0.62623623  0.88481069    -0.02600
C1156       C  0.86508546  0.60538963  0.84317566     0.04200
N1157       N  0.86457495  0.54959727  0.83154229     0.66700
H1158       H  0.80985394  0.62292123  0.77990731     0.15600
H1159       H  0.91971098  0.69791615  0.92596551     0.15300
N1160       N  0.85528840  0.76570055  0.88880031     0.74400
O1161       O  0.82336465  0.52195353  0.84416657    -0.39000
O1162       O  0.89813440  0.53155601  0.79768255    -0.38900
O1163       O  0.82222497  0.76846842  0.92781207    -0.39700
O1164       O  0.89709203  0.79502743  0.89066099    -0.39700
C1165       C  0.63380014  0.83661687  0.90922057    -0.12000
C1166       C  0.63328684  0.89036522  0.89598391     0.05000
C1167       C  0.65317444  0.90746433  0.84543969    -0.07300
C1168       C  0.67612919  0.87021342  0.81015800    -0.08000
C1169       C  0.67918930  0.81534138  0.82369467    -0.02600
C1170       C  0.65837594  0.79935712  0.87584338     0.04200
N1171       N  0.67055496  0.75001862  0.90199793     0.66700
H1172       H  0.61690121  0.82352971  0.94788232     0.15600
H1173       H  0.69230866  0.88438006  0.77218022     0.15300
N1174       N  0.65054979  0.96234419  0.82950956     0.74400
O1175       O  0.63212683  0.72458751  0.92454377    -0.39000
O1176       O  0.71767391  0.74382678  0.92056581    -0.38900
O1177       O  0.69274658  0.99089272  0.83203530    -0.39700
O1178       O  0.60973688  0.97933534  0.80400385    -0.39700
C1179       C  0.84731108  0.80156303  0.64351321    -0.12000
C1180       C  0.80881522  0.82466107  0.67875222     0.05000
C1181       C  0.80676336  0.88185383  0.67679315    -0.07300
C1182       C  0.84338003  0.91192670  0.64325365    -0.08000
C1183       C  0.88207266  0.88706439  0.60963595    -0.02600
C1184       C  0.88250139  0.83087775  0.60985215     0.04200
N1185       N  0.91945112  0.80166290  0.57660164     0.66700
H1186       H  0.85356919  0.76076048  0.64139498     0.15600
H1187       H  0.84055291  0.95513175  0.64277742     0.15300
N1188       N  0.76808771  0.91102030  0.70771381     0.74400
O1189       O  0.96767046  0.79486629  0.59212043    -0.39000
O1190       O  0.90161146  0.77520877  0.53711475    -0.38900
O1191       O  0.78462283  0.93762165  0.74762933    -0.39700
O1192       O  0.72500771  0.92569486  0.68461223    -0.39700
loop_ 
_geom_bond_atom_site_label_1 
_geom_bond_atom_site_label_2 
_geom_bond_distance 
_geom_bond_site_symmetry_2 
_ccdc_geom_bond_type 
O1            C9   1.266       .  A
O1         Co170   1.999       .  S
O2           C10   1.279       .  A
O2          Co22   1.921       .  S
O3           C11   1.275       .  A
O3         Co768   2.061   1_454  S
O4           C12   1.301       .  A
O4         Co620   2.076       .  S
O5           C11   1.261       .  A
O5         Co320   1.984       .  S
O6           C12   1.277       .  A
O6         Co468   1.921       .  S
O7           C10   1.290       .  A
O7          Co24   2.043       .  S
O8            C9   1.276       .  A
O8         Co172   2.031   1_554  S
C9          C140   1.513       .  S
C10          C81   1.475       .  S
C11          C56   1.507       .  S
C12          C70   1.493       .  S
O13          C26   1.241       .  A
O13        Co319   1.975       .  S
O14          C27   1.274       .  A
O14        Co469   2.028       .  S
O15          C28   1.253       .  A
O15         Co23   1.956       .  S
O16          C29   1.256       .  A
O16        Co173   2.020       .  S
O17          C29   1.229       .  A
O17        Co171   1.944       .  S
O18          C28   1.271       .  A
O18         Co21   2.013       .  S
O19          C26   1.255       .  A
O19        Co769   1.992       .  S
O20          C27   1.248       .  A
O20        Co619   1.947   1_455  S
Co21        O150   2.000       .  S
Co21        O453   1.915       .  S
Co21        O311   1.974       .  S
Co21        O174   1.966       .  S
Co22        O303   1.986   1_545  S
Co22        O461   2.030   1_544  S
Co22        O166   1.947   1_554  S
Co22        O919   1.962   1_544  S
Co23        O748   2.060       .  S
Co23        O157   2.023       .  S
Co23        O616   1.949       .  S
Co23        O174   2.048       .  S
Co24        O600   2.075   1_455  S
Co24        O165   2.021   1_554  S
Co24        O764   1.994   1_454  S
Co24        O919   2.223   1_544  S
O25        Co170   1.966   1_556  S
O25        Co916   1.953   1_556  S
O25        Co172   2.049       .  S
O25        Co918   2.226   1_556  S
C26         C112   1.488       .  S
C27         C123   1.452       .  S
C28          C95   1.480       .  S
C29          C42   1.473       .  S
C30          C31   1.572       .  S
C30          C33   1.563       .  S
C30          C34   1.591       .  S
C30          C39   1.562       .  S
C31          C32   1.573       .  S
C31          C37   1.586       .  S
C31         C126   1.542       .  S
C32          C33   1.588       .  S
C32          C36   1.591       .  S
C32          C53   1.586       .  S
C33          C35   1.581       .  S
C33          C84   1.569       .  S
C34          C35   1.581       .  S
C34          C37   1.579       .  S
C34         C109   1.569       .  S
C35          C36   1.591       .  S
C35          C67   1.570       .  S
C36          C37   1.576       .  S
C36         C137   1.589       .  S
C37          C98   1.564       .  S
C38          C39   1.411       .  A
C38          C43   1.407       .  A
C38          H45   1.061       .  S
C39          C40   1.427       .  A
C40          C41   1.399       .  A
C40          N47   1.411       .  S
C41          C42   1.381       .  A
C41          H46   1.086       .  S
C42          C43   1.415       .  A
C43          N44   1.445       .  S
N44          O48   1.259       .  A
N44          O49   1.263       .  A
N47          O51   1.263       .  A
N47          O50   1.261       .  A
C52          C53   1.406       .  A
C52          C57   1.412       .  A
C52          H59   1.080       .  S
C53          C54   1.446       .  A
C54          C55   1.413       .  A
C54          N61   1.417       .  S
C55          C56   1.383       .  A
C55          H60   1.085       .  S
C56          C57   1.411       .  A
C57          N58   1.415       .  S
N58          O62   1.261       .  A
N58          O63   1.261       .  A
N61          O65   1.263       .  A
N61          O64   1.262       .  A
C66          C67   1.413       .  A
C66          C71   1.405       .  A
C66          H73   1.082       .  S
C67          C68   1.435       .  A
C68          C69   1.404       .  A
C68          N75   1.430       .  S
C69          C70   1.398       .  A
C69          H74   1.084       .  S
C70          C71   1.408       .  A
C71          N72   1.425       .  S
N72          O76   1.261       .  A
N72          O77   1.262       .  A
N75          O79   1.262       .  A
N75          O78   1.262       .  A
C80          C81   1.387       .  A
C80          C85   1.406       .  A
C80          H87   1.085       .  S
C81          C82   1.403       .  A
C82          C83   1.398       .  A
C82          N89   1.429       .  S
C83          C84   1.411       .  A
C83          H88   1.063       .  S
C84          C85   1.435       .  A
C85          N86   1.420       .  S
N86          O90   1.263       .  A
N86          O91   1.259       .  A
N89          O93   1.261       .  A
N89         O241   1.262       .  A
O92         N238   1.262       .  A
C94          C95   1.402       .  A
C94          C99   1.406       .  A
C94         H101   1.084       .  S
C95          C96   1.390       .  A
C96          C97   1.392       .  A
C96         N103   1.421       .  S
C97          C98   1.412       .  A
C97         H102   1.061       .  S
C98          C99   1.425       .  A
C99         N100   1.422       .  S
N100        O104   1.263       .  A
N100        O105   1.255       .  A
N103        O256   1.263       .  A
N103        O255   1.258       .  A
O106        N252   1.259       .  A
O107        N252   1.263       .  A
C108        C109   1.408       .  A
C108        C113   1.407       .  A
C108        H115   1.058       .  S
C109        C110   1.434       .  A
C110        C111   1.399       .  A
C110        N117   1.417       .  S
C111        C112   1.389       .  A
C111        H116   1.085       .  S
C112        C113   1.408       .  A
C113        N114   1.428       .  S
N114        O118   1.262       .  A
N114        O119   1.262       .  A
N117        O121   1.263       .  A
N117        O120   1.261       .  A
C122        C123   1.379       .  A
C122        C127   1.390       .  A
C122        H129   1.086       .  S
C123        C124   1.400       .  A
C124        C125   1.401       .  A
C124        N131   1.425       .  S
C125        C126   1.412       .  A
C125        H130   1.074       .  S
C126        C127   1.437       .  A
C127        N128   1.420       .  S
N128        O132   1.263       .  A
N128        O133   1.260       .  A
N131        O135   1.262       .  A
N131        O134   1.260       .  A
C136        C137   1.415       .  A
C136        C141   1.400       .  A
C136        H143   1.051       .  S
C137        C138   1.432       .  A
C138        C139   1.428       .  A
C138        N145   1.427       .  S
C139        C140   1.412       .  A
C139        H144   1.084       .  S
C140        C141   1.404       .  A
C141        N142   1.432       .  S
N142        O146   1.262       .  A
N142        O147   1.262       .  A
N145        O149   1.261       .  A
N145        O148   1.262       .  A
O150        C158   1.265       .  A
O151        C159   1.279       .  A
O151       Co171   1.924       .  S
O152        C160   1.275       .  A
O152       Co619   2.061   1_455  S
O153        C161   1.300       .  A
O153       Co769   2.075       .  S
O154        C160   1.261       .  A
O154       Co469   1.985       .  S
O155        C161   1.276       .  A
O155       Co319   1.917       .  S
O156        C159   1.290       .  A
O156       Co173   2.040       .  S
O157        C158   1.274       .  A
C158        C289   1.513       .  S
C159        C230   1.478       .  S
C160        C205   1.508       .  S
C161        C219   1.494       .  S
O162        C175   1.241       .  A
O162       Co468   1.977   1_556  S
O163        C176   1.274       .  A
O163       Co320   2.029   1_556  S
O164        C177   1.253       .  A
O164       Co172   1.954       .  S
O165        C178   1.257       .  A
O166        C178   1.231       .  A
O167        C177   1.271       .  A
O167       Co170   2.011   1_556  S
O168        C175   1.256       .  A
O168       Co620   1.990   1_556  S
O169        C176   1.250       .  A
O169       Co768   1.951   1_455  S
Co170       O304   1.922       .  S
Co170       O460   1.975   1_554  S
Co171       O452   1.984   1_545  S
Co171       O312   2.031   1_545  S
Co171      O1068   1.958   1_545  S
Co172       O599   2.056   1_556  S
Co172       O765   1.953       .  S
Co173       O749   2.069   1_455  S
Co173       O615   1.992   1_455  S
Co173      O1068   2.224   1_545  S
O174      Co1065   1.961       .  S
O174      Co1067   2.222       .  S
C175        C261   1.488       .  S
C176        C272   1.454       .  S
C177        C244   1.477       .  S
C178        C191   1.478       .  S
C179        C180   1.571       .  S
C179        C182   1.563       .  S
C179        C183   1.592       .  S
C179        C188   1.564       .  S
C180        C181   1.572       .  S
C180        C186   1.588       .  S
C180        C275   1.541       .  S
C181        C182   1.591       .  S
C181        C185   1.591       .  S
C181        C202   1.589       .  S
C182        C184   1.583       .  S
C182        C233   1.572       .  S
C183        C184   1.580       .  S
C183        C186   1.580       .  S
C183        C258   1.575       .  S
C184        C185   1.593       .  S
C184        C216   1.567       .  S
C185        C186   1.578       .  S
C185        C286   1.589       .  S
C186        C247   1.564       .  S
C187        C188   1.413       .  A
C187        C192   1.411       .  A
C187        H194   1.063       .  S
C188        C189   1.425       .  A
C189        C190   1.398       .  A
C189        N196   1.410       .  S
C190        C191   1.381       .  A
C190        H195   1.086       .  S
C191        C192   1.417       .  A
C192        N193   1.445       .  S
N193        O197   1.259       .  A
N193        O198   1.262       .  A
N196        O200   1.262       .  A
N196        O199   1.261       .  A
C201        C202   1.408       .  A
C201        C206   1.412       .  A
C201        H208   1.080       .  S
C202        C203   1.449       .  A
C203        C204   1.414       .  A
C203        N210   1.419       .  S
C204        C205   1.384       .  A
C204        H209   1.085       .  S
C205        C206   1.411       .  A
C206        N207   1.417       .  S
N207        O211   1.262       .  A
N207        O212   1.261       .  A
N210        O214   1.263       .  A
N210        O213   1.261       .  A
C215        C216   1.411       .  A
C215        C220   1.402       .  A
C215        H222   1.081       .  S
C216        C217   1.435       .  A
C217        C218   1.404       .  A
C217        N224   1.429       .  S
C218        C219   1.398       .  A
C218        H223   1.084       .  S
C219        C220   1.407       .  A
C220        N221   1.422       .  S
N221        O225   1.260       .  A
N221        O226   1.262       .  A
N224        O228   1.262       .  A
N224        O227   1.262       .  A
C229        C230   1.387       .  A
C229        C234   1.406       .  A
C229        H236   1.085       .  S
C230        C231   1.405       .  A
C231        C232   1.400       .  A
C231        N238   1.430       .  S
C232        C233   1.412       .  A
C232        H237   1.065       .  S
C233        C234   1.436       .  A
C234        N235   1.419       .  S
N235        O239   1.263       .  A
N235        O240   1.258       .  A
N238        O242   1.262       .  A
C243        C244   1.402       .  A
C243        C248   1.409       .  A
C243        H250   1.084       .  S
C244        C245   1.385       .  A
C245        C246   1.386       .  A
C245        N252   1.419       .  S
C246        C247   1.408       .  A
C246        H251   1.056       .  S
C247        C248   1.429       .  A
C248        N249   1.425       .  S
N249        O253   1.263       .  A
N249        O254   1.254       .  A
C257        C258   1.412       .  A
C257        C262   1.409       .  A
C257        H264   1.056       .  S
C258        C259   1.437       .  A
C259        C260   1.397       .  A
C259        N266   1.414       .  S
C260        C261   1.386       .  A
C260        H265   1.085       .  S
C261        C262   1.406       .  A
C262        N263   1.428       .  S
N263        O267   1.262       .  A
N263        O268   1.262       .  A
N266        O270   1.263       .  A
N266        O269   1.263       .  A
C271        C272   1.382       .  A
C271        C276   1.391       .  A
C271        H278   1.085       .  S
C272        C273   1.400       .  A
C273        C274   1.401       .  A
C273        N280   1.425       .  S
C274        C275   1.411       .  A
C274        H279   1.074       .  S
C275        C276   1.437       .  A
C276        N277   1.425       .  S
N277        O281   1.262       .  A
N277        O282   1.262       .  A
N280        O284   1.262       .  A
N280        O283   1.260       .  A
C285        C286   1.411       .  A
C285        C290   1.394       .  A
C285        H292   1.065       .  S
C286        C287   1.434       .  A
C287        C288   1.429       .  A
C287        N294   1.428       .  S
C288        C289   1.414       .  A
C288        H293   1.084       .  S
C289        C290   1.406       .  A
C290        N291   1.432       .  S
N291        O295   1.262       .  A
N291        O296   1.262       .  A
N294        O298   1.261       .  A
N294        O297   1.262       .  A
O299        C307   1.266       .  A
O299       Co468   2.000   1_565  S
O300        C308   1.278       .  A
O300       Co320   1.920       .  S
O301        C309   1.275       .  A
O301      Co1066   2.061   1_454  S
O302        C310   1.299       .  A
O302       Co918   2.070       .  S
O303        C309   1.261       .  A
O304        C310   1.276       .  A
O305        C308   1.291       .  A
O305       Co322   2.044       .  S
O306        C307   1.274       .  A
O306       Co470   2.026   1_554  S
C307        C438   1.512       .  S
C308        C379   1.477       .  S
C309        C354   1.507       .  S
C310        C368   1.492       .  S
O311        C324   1.242       .  A
O312        C325   1.275       .  A
O313        C326   1.253       .  A
O313       Co321   1.954       .  S
O314        C327   1.257       .  A
O314       Co471   2.021       .  S
O315        C327   1.229       .  A
O315       Co469   1.947       .  S
O316        C326   1.271       .  A
O316       Co319   2.011   1_565  S
O317        C324   1.255       .  A
O317      Co1067   1.991       .  S
O318        C325   1.249       .  A
O318       Co917   1.950   1_455  S
Co319       O448   2.000   1_545  S
Co319       O472   1.965   1_545  S
Co320       O464   1.942   1_554  S
Co320       O621   1.958   1_554  S
Co321      O1046   2.058       .  S
Co321       O455   2.029       .  S
Co321       O914   1.952       .  S
Co321       O472   2.049       .  S
Co322       O898   2.071   1_455  S
Co322       O463   2.019   1_554  S
Co322      O1062   1.995   1_454  S
Co322       O621   2.225   1_554  S
O323       Co468   1.967   1_566  S
O323       Co618   1.956   1_566  S
O323       Co470   2.048       .  S
O323       Co620   2.222   1_566  S
C324        C410   1.487       .  S
C325        C421   1.455       .  S
C326        C393   1.479       .  S
C327        C340   1.478       .  S
C328        C329   1.573       .  S
C328        C331   1.562       .  S
C328        C332   1.590       .  S
C328        C337   1.563       .  S
C329        C330   1.572       .  S
C329        C335   1.586       .  S
C329        C424   1.542       .  S
C330        C331   1.589       .  S
C330        C334   1.591       .  S
C330        C351   1.585       .  S
C331        C333   1.581       .  S
C331        C382   1.571       .  S
C332        C333   1.580       .  S
C332        C335   1.579       .  S
C332        C407   1.570       .  S
C333        C334   1.591       .  S
C333        C365   1.568       .  S
C334        C335   1.576       .  S
C334        C435   1.589       .  S
C335        C396   1.563       .  S
C336        C337   1.412       .  A
C336        C341   1.409       .  A
C336        H343   1.062       .  S
C337        C338   1.425       .  A
C338        C339   1.399       .  A
C338        N345   1.410       .  S
C339        C340   1.382       .  A
C339        H344   1.086       .  S
C340        C341   1.416       .  A
C341        N342   1.444       .  S
N342        O346   1.259       .  A
N342        O347   1.263       .  A
N345        O349   1.262       .  A
N345        O348   1.261       .  A
C350        C351   1.407       .  A
C350        C355   1.412       .  A
C350        H357   1.081       .  S
C351        C352   1.447       .  A
C352        C353   1.413       .  A
C352        N359   1.419       .  S
C353        C354   1.384       .  A
C353        H358   1.085       .  S
C354        C355   1.411       .  A
C355        N356   1.416       .  S
N356        O360   1.261       .  A
N356        O361   1.261       .  A
N359        O363   1.263       .  A
N359        O362   1.262       .  A
C364        C365   1.411       .  A
C364        C369   1.404       .  A
C364        H371   1.082       .  S
C365        C366   1.435       .  A
C366        C367   1.403       .  A
C366        N373   1.430       .  S
C367        C368   1.398       .  A
C367        H372   1.084       .  S
C368        C369   1.408       .  A
C369        N370   1.423       .  S
N370        O374   1.261       .  A
N370        O375   1.262       .  A
N373        O377   1.262       .  A
N373        O376   1.262       .  A
C378        C379   1.388       .  A
C378        C383   1.406       .  A
C378        H385   1.085       .  S
C379        C380   1.404       .  A
C380        C381   1.399       .  A
C380        N387   1.429       .  S
C381        C382   1.411       .  A
C381        H386   1.064       .  S
C382        C383   1.436       .  A
C383        N384   1.420       .  S
N384        O388   1.263       .  A
N384        O389   1.258       .  A
N387        O391   1.262       .  A
N387        O539   1.262       .  A
O390        N536   1.262       .  A
C392        C393   1.403       .  A
C392        C397   1.406       .  A
C392        H399   1.084       .  S
C393        C394   1.389       .  A
C394        C395   1.390       .  A
C394        N401   1.421       .  S
C395        C396   1.412       .  A
C395        H400   1.061       .  S
C396        C397   1.425       .  A
C397        N398   1.422       .  S
N398        O402   1.263       .  A
N398        O403   1.255       .  A
N401        O554   1.263       .  A
N401        O553   1.259       .  A
O404        N550   1.258       .  A
O405        N550   1.263       .  A
C406        C407   1.409       .  A
C406        C411   1.406       .  A
C406        H413   1.057       .  S
C407        C408   1.435       .  A
C408        C409   1.399       .  A
C408        N415   1.417       .  S
C409        C410   1.389       .  A
C409        H414   1.085       .  S
C410        C411   1.407       .  A
C411        N412   1.428       .  S
N412        O416   1.261       .  A
N412        O417   1.262       .  A
N415        O419   1.263       .  A
N415        O418   1.261       .  A
C420        C421   1.381       .  A
C420        C425   1.391       .  A
C420        H427   1.086       .  S
C421        C422   1.401       .  A
C422        C423   1.403       .  A
C422        N429   1.425       .  S
C423        C424   1.412       .  A
C423        H428   1.074       .  S
C424        C425   1.436       .  A
C425        N426   1.421       .  S
N426        O430   1.262       .  A
N426        O431   1.260       .  A
N429        O433   1.262       .  A
N429        O432   1.260       .  A
C434        C435   1.414       .  A
C434        C439   1.397       .  A
C434        H441   1.049       .  S
C435        C436   1.432       .  A
C436        C437   1.428       .  A
C436        N443   1.427       .  S
C437        C438   1.412       .  A
C437        H442   1.084       .  S
C438        C439   1.404       .  A
C439        N440   1.432       .  S
N440        O444   1.262       .  A
N440        O445   1.262       .  A
N443        O447   1.262       .  A
N443        O446   1.262       .  A
O448        C456   1.267       .  A
O449        C457   1.279       .  A
O449       Co469   1.918       .  S
O450        C458   1.275       .  A
O450       Co917   2.060   1_455  S
O451        C459   1.301       .  A
O451      Co1067   2.078       .  S
O452        C458   1.261       .  A
O453        C459   1.275       .  A
O454        C457   1.292       .  A
O454       Co471   2.046       .  S
O455        C456   1.275       .  A
C456        C587   1.516       .  S
C457        C528   1.476       .  S
C458        C503   1.507       .  S
C459        C517   1.491       .  S
O460        C473   1.241       .  A
O461        C474   1.274       .  A
O462        C475   1.252       .  A
O462       Co470   1.953       .  S
O463        C476   1.257       .  A
O464        C476   1.229       .  A
O465        C475   1.272       .  A
O465       Co468   2.013   1_566  S
O466        C473   1.255       .  A
O466       Co918   1.991   1_556  S
O467        C474   1.247       .  A
O467      Co1066   1.946   1_455  S
Co469       O770   1.959   1_455  S
Co470       O897   2.059   1_556  S
Co470      O1063   1.948       .  S
Co471      O1047   2.078   1_455  S
Co471       O913   1.989   1_455  S
Co471       O770   2.221   1_455  S
O472       Co767   1.957   1_565  S
O472       Co769   2.225   1_565  S
C473        C559   1.488       .  S
C474        C570   1.452       .  S
C475        C542   1.479       .  S
C476        C489   1.473       .  S
C477        C478   1.572       .  S
C477        C480   1.563       .  S
C477        C481   1.591       .  S
C477        C486   1.566       .  S
C478        C479   1.573       .  S
C478        C484   1.586       .  S
C478        C573   1.539       .  S
C479        C480   1.589       .  S
C479        C483   1.591       .  S
C479        C500   1.587       .  S
C480        C482   1.583       .  S
C480        C531   1.569       .  S
C481        C482   1.580       .  S
C481        C484   1.579       .  S
C481        C556   1.569       .  S
C482        C483   1.591       .  S
C482        C514   1.567       .  S
C483        C484   1.576       .  S
C483        C584   1.591       .  S
C484        C545   1.564       .  S
C485        C486   1.414       .  A
C485        C490   1.409       .  A
C485        H492   1.061       .  S
C486        C487   1.427       .  A
C487        C488   1.398       .  A
C487        N494   1.410       .  S
C488        C489   1.380       .  A
C488        H493   1.086       .  S
C489        C490   1.415       .  A
C490        N491   1.447       .  S
N491        O495   1.259       .  A
N491        O496   1.262       .  A
N494        O498   1.263       .  A
N494        O497   1.261       .  A
C499        C500   1.408       .  A
C499        C504   1.413       .  A
C499        H506   1.080       .  S
C500        C501   1.445       .  A
C501        C502   1.413       .  A
C501        N508   1.417       .  S
C502        C503   1.384       .  A
C502        H507   1.085       .  S
C503        C504   1.411       .  A
C504        N505   1.417       .  S
N505        O509   1.261       .  A
N505        O510   1.261       .  A
N508        O512   1.263       .  A
N508        O511   1.262       .  A
C513        C514   1.412       .  A
C513        C518   1.402       .  A
C513        H520   1.081       .  S
C514        C515   1.434       .  A
C515        C516   1.404       .  A
C515        N522   1.428       .  S
C516        C517   1.397       .  A
C516        H521   1.084       .  S
C517        C518   1.406       .  A
C518        N519   1.423       .  S
N519        O523   1.261       .  A
N519        O524   1.262       .  A
N522        O526   1.262       .  A
N522        O525   1.262       .  A
C527        C528   1.389       .  A
C527        C532   1.407       .  A
C527        H534   1.085       .  S
C528        C529   1.403       .  A
C529        C530   1.397       .  A
C529        N536   1.429       .  S
C530        C531   1.411       .  A
C530        H535   1.062       .  S
C531        C532   1.435       .  A
C532        N533   1.420       .  S
N533        O537   1.263       .  A
N533        O538   1.259       .  A
N536        O540   1.261       .  A
C541        C542   1.404       .  A
C541        C546   1.408       .  A
C541        H548   1.084       .  S
C542        C543   1.387       .  A
C543        C544   1.389       .  A
C543        N550   1.420       .  S
C544        C545   1.410       .  A
C544        H549   1.058       .  S
C545        C546   1.426       .  A
C546        N547   1.422       .  S
N547        O551   1.263       .  A
N547        O552   1.254       .  A
C555        C556   1.410       .  A
C555        C560   1.407       .  A
C555        H562   1.059       .  S
C556        C557   1.435       .  A
C557        C558   1.397       .  A
C557        N564   1.416       .  S
C558        C559   1.388       .  A
C558        H563   1.085       .  S
C559        C560   1.407       .  A
C560        N561   1.427       .  S
N561        O565   1.261       .  A
N561        O566   1.261       .  A
N564        O568   1.263       .  A
N564        O567   1.262       .  A
C569        C570   1.381       .  A
C569        C574   1.391       .  A
C569        H576   1.085       .  S
C570        C571   1.399       .  A
C571        C572   1.400       .  A
C571        N578   1.425       .  S
C572        C573   1.410       .  A
C572        H577   1.073       .  S
C573        C574   1.437       .  A
C574        N575   1.422       .  S
N575        O579   1.263       .  A
N575        O580   1.260       .  A
N578        O582   1.262       .  A
N578        O581   1.260       .  A
C583        C584   1.414       .  A
C583        C588   1.399       .  A
C583        H590   1.047       .  S
C584        C585   1.433       .  A
C585        C586   1.429       .  A
C585        N592   1.428       .  S
C586        C587   1.413       .  A
C586        H591   1.083       .  S
C587        C588   1.406       .  A
C588        N589   1.431       .  S
N589        O593   1.262       .  A
N589        O594   1.262       .  A
N592        O596   1.261       .  A
N592        O595   1.262       .  A
O597        C605   1.266       .  A
O597       Co766   1.999       .  S
O598        C606   1.278       .  A
O598       Co618   1.918       .  S
O599        C607   1.274       .  A
O600        C608   1.300       .  A
O601        C607   1.261       .  A
O601       Co916   1.985       .  S
O602        C608   1.276       .  A
O602      Co1064   1.917       .  S
O603        C606   1.291       .  A
O603       Co620   2.044       .  S
O604        C605   1.274       .  A
O604       Co768   2.024   1_554  S
C605        C736   1.511       .  S
C606        C677   1.474       .  S
C607        C652   1.505       .  S
C608        C666   1.492       .  S
O609        C622   1.241       .  A
O609       Co915   1.976       .  S
O610        C623   1.275       .  A
O610      Co1065   2.032       .  S
O611        C624   1.252       .  A
O611       Co619   1.954       .  S
O612        C625   1.257       .  A
O612       Co769   2.023       .  S
O613        C625   1.229       .  A
O613       Co767   1.945       .  S
O614        C624   1.272       .  A
O614       Co617   2.014       .  S
O615        C622   1.255       .  A
O616        C623   1.249       .  A
Co617       O746   2.000       .  S
Co617      O1049   1.920       .  S
Co617       O907   1.975       .  S
Co617       O770   1.968       .  S
Co618       O899   1.985   1_545  S
Co618      O1057   2.026   1_544  S
Co618       O762   1.947   1_554  S
Co619       O753   2.026       .  S
Co619       O770   2.048       .  S
Co620       O761   2.023   1_554  S
O621       Co766   1.964   1_456  S
O621       Co768   2.049   1_455  S
C622        C708   1.490       .  S
C623        C719   1.455       .  S
C624        C691   1.479       .  S
C625        C638   1.476       .  S
C626        C627   1.572       .  S
C626        C629   1.563       .  S
C626        C630   1.592       .  S
C626        C635   1.565       .  S
C627        C628   1.571       .  S
C627        C633   1.586       .  S
C627        C722   1.541       .  S
C628        C629   1.589       .  S
C628        C632   1.589       .  S
C628        C649   1.584       .  S
C629        C631   1.582       .  S
C629        C680   1.569       .  S
C630        C631   1.580       .  S
C630        C633   1.581       .  S
C630        C705   1.571       .  S
C631        C632   1.592       .  S
C631        C663   1.568       .  S
C632        C633   1.577       .  S
C632        C733   1.587       .  S
C633        C694   1.566       .  S
C634        C635   1.412       .  A
C634        C639   1.409       .  A
C634        H641   1.061       .  S
C635        C636   1.426       .  A
C636        C637   1.399       .  A
C636        N643   1.410       .  S
C637        C638   1.381       .  A
C637        H642   1.086       .  S
C638        C639   1.417       .  A
C639        N640   1.446       .  S
N640        O644   1.259       .  A
N640        O645   1.262       .  A
N643        O647   1.262       .  A
N643        O646   1.261       .  A
C648        C649   1.408       .  A
C648        C653   1.412       .  A
C648        H655   1.081       .  S
C649        C650   1.446       .  A
C650        C651   1.411       .  A
C650        N657   1.418       .  S
C651        C652   1.383       .  A
C651        H656   1.085       .  S
C652        C653   1.412       .  A
C653        N654   1.418       .  S
N654        O658   1.261       .  A
N654        O659   1.262       .  A
N657        O661   1.263       .  A
N657        O660   1.262       .  A
C662        C663   1.412       .  A
C662        C667   1.403       .  A
C662        H669   1.082       .  S
C663        C664   1.435       .  A
C664        C665   1.404       .  A
C664        N671   1.429       .  S
C665        C666   1.397       .  A
C665        H670   1.084       .  S
C666        C667   1.407       .  A
C667        N668   1.423       .  S
N668        O672   1.261       .  A
N668        O673   1.262       .  A
N671        O675   1.262       .  A
N671        O674   1.262       .  A
C676        C677   1.388       .  A
C676        C681   1.406       .  A
C676        H683   1.085       .  S
C677        C678   1.402       .  A
C678        C679   1.397       .  A
C678        N685   1.430       .  S
C679        C680   1.411       .  A
C679        H684   1.063       .  S
C680        C681   1.435       .  A
C681        N682   1.420       .  S
N682        O686   1.263       .  A
N682        O687   1.259       .  A
N685        O689   1.261       .  A
N685        O837   1.262       .  A
O688        N834   1.262       .  A
C690        C691   1.403       .  A
C690        C695   1.408       .  A
C690        H697   1.084       .  S
C691        C692   1.387       .  A
C692        C693   1.389       .  A
C692        N699   1.421       .  S
C693        C694   1.410       .  A
C693        H698   1.058       .  S
C694        C695   1.427       .  A
C695        N696   1.423       .  S
N696        O700   1.263       .  A
N696        O701   1.254       .  A
N699        O852   1.263       .  A
N699        O851   1.259       .  A
O702        N848   1.259       .  A
O703        N848   1.263       .  A
C704        C705   1.411       .  A
C704        C709   1.408       .  A
C704        H711   1.058       .  S
C705        C706   1.435       .  A
C706        C707   1.398       .  A
C706        N713   1.416       .  S
C707        C708   1.388       .  A
C707        H712   1.085       .  S
C708        C709   1.408       .  A
C709        N710   1.428       .  S
N710        O714   1.262       .  A
N710        O715   1.262       .  A
N713        O717   1.263       .  A
N713        O716   1.262       .  A
C718        C719   1.382       .  A
C718        C723   1.392       .  A
C718        H725   1.085       .  S
C719        C720   1.400       .  A
C720        C721   1.401       .  A
C720        N727   1.425       .  S
C721        C722   1.411       .  A
C721        H726   1.074       .  S
C722        C723   1.436       .  A
C723        N724   1.423       .  S
N724        O728   1.262       .  A
N724        O729   1.261       .  A
N727        O731   1.262       .  A
N727        O730   1.260       .  A
C732        C733   1.413       .  A
C732        C737   1.397       .  A
C732        H739   1.051       .  S
C733        C734   1.433       .  A
C734        C735   1.427       .  A
C734        N741   1.427       .  S
C735        C736   1.412       .  A
C735        H740   1.084       .  S
C736        C737   1.406       .  A
C737        N738   1.432       .  S
N738        O742   1.262       .  A
N738        O743   1.262       .  A
N741        O745   1.261       .  A
N741        O744   1.262       .  A
O746        C754   1.267       .  A
O747        C755   1.279       .  A
O747       Co767   1.923       .  S
O748        C756   1.275       .  A
O749        C757   1.299       .  A
O750        C756   1.260       .  A
O750      Co1065   1.983       .  S
O751        C757   1.277       .  A
O751       Co915   1.924       .  S
O752        C755   1.290       .  A
O752       Co769   2.040       .  S
O753        C754   1.274       .  A
C754        C885   1.513       .  S
C755        C826   1.476       .  S
C756        C801   1.505       .  S
C757        C815   1.492       .  S
O758        C771   1.242       .  A
O758      Co1064   1.976   1_556  S
O759        C772   1.274       .  A
O759       Co916   2.026   1_556  S
O760        C773   1.254       .  A
O760       Co768   1.958       .  S
O761        C774   1.257       .  A
O762        C774   1.229       .  A
O763        C773   1.271       .  A
O763       Co766   2.008   1_556  S
O764        C771   1.255       .  A
O765        C772   1.250       .  A
Co766       O900   1.918       .  S
Co766      O1056   1.976   1_554  S
Co767      O1048   1.982   1_545  S
Co767       O908   2.032   1_545  S
C771        C857   1.490       .  S
C772        C868   1.454       .  S
C773        C840   1.479       .  S
C774        C787   1.476       .  S
C775        C776   1.573       .  S
C775        C778   1.563       .  S
C775        C779   1.591       .  S
C775        C784   1.564       .  S
C776        C777   1.572       .  S
C776        C782   1.586       .  S
C776        C871   1.541       .  S
C777        C778   1.589       .  S
C777        C781   1.590       .  S
C777        C798   1.584       .  S
C778        C780   1.581       .  S
C778        C829   1.569       .  S
C779        C780   1.581       .  S
C779        C782   1.580       .  S
C779        C854   1.572       .  S
C780        C781   1.591       .  S
C780        C812   1.568       .  S
C781        C782   1.576       .  S
C781        C882   1.589       .  S
C782        C843   1.564       .  S
C783        C784   1.412       .  A
C783        C788   1.409       .  A
C783        H790   1.061       .  S
C784        C785   1.427       .  A
C785        C786   1.399       .  A
C785        N792   1.411       .  S
C786        C787   1.381       .  A
C786        H791   1.086       .  S
C787        C788   1.416       .  A
C788        N789   1.445       .  S
N789        O793   1.259       .  A
N789        O794   1.263       .  A
N792        O796   1.262       .  A
N792        O795   1.261       .  A
C797        C798   1.407       .  A
C797        C802   1.411       .  A
C797        H804   1.080       .  S
C798        C799   1.446       .  A
C799        C800   1.412       .  A
C799        N806   1.418       .  S
C800        C801   1.383       .  A
C800        H805   1.085       .  S
C801        C802   1.411       .  A
C802        N803   1.416       .  S
N803        O807   1.261       .  A
N803        O808   1.261       .  A
N806        O810   1.263       .  A
N806        O809   1.262       .  A
C811        C812   1.412       .  A
C811        C816   1.404       .  A
C811        H818   1.082       .  S
C812        C813   1.434       .  A
C813        C814   1.403       .  A
C813        N820   1.429       .  S
C814        C815   1.399       .  A
C814        H819   1.084       .  S
C815        C816   1.407       .  A
C816        N817   1.424       .  S
N817        O821   1.261       .  A
N817        O822   1.262       .  A
N820        O824   1.262       .  A
N820        O823   1.262       .  A
C825        C826   1.387       .  A
C825        C830   1.406       .  A
C825        H832   1.085       .  S
C826        C827   1.404       .  A
C827        C828   1.399       .  A
C827        N834   1.429       .  S
C828        C829   1.411       .  A
C828        H833   1.064       .  S
C829        C830   1.435       .  A
C830        N831   1.420       .  S
N831        O835   1.263       .  A
N831        O836   1.258       .  A
N834        O838   1.261       .  A
C839        C840   1.402       .  A
C839        C844   1.406       .  A
C839        H846   1.084       .  S
C840        C841   1.390       .  A
C841        C842   1.390       .  A
C841        N848   1.421       .  S
C842        C843   1.411       .  A
C842        H847   1.061       .  S
C843        C844   1.426       .  A
C844        N845   1.422       .  S
N845        O849   1.263       .  A
N845        O850   1.255       .  A
C853        C854   1.409       .  A
C853        C858   1.407       .  A
C853        H860   1.058       .  S
C854        C855   1.435       .  A
C855        C856   1.400       .  A
C855        N862   1.417       .  S
C856        C857   1.389       .  A
C856        H861   1.085       .  S
C857        C858   1.407       .  A
C858        N859   1.428       .  S
N859        O863   1.262       .  A
N859        O864   1.262       .  A
N862        O866   1.263       .  A
N862        O865   1.261       .  A
C867        C868   1.380       .  A
C867        C872   1.390       .  A
C867        H874   1.086       .  S
C868        C869   1.400       .  A
C869        C870   1.402       .  A
C869        N876   1.425       .  S
C870        C871   1.412       .  A
C870        H875   1.073       .  S
C871        C872   1.436       .  A
C872        N873   1.420       .  S
N873        O877   1.263       .  A
N873        O878   1.260       .  A
N876        O880   1.262       .  A
N876        O879   1.260       .  A
C881        C882   1.413       .  A
C881        C886   1.397       .  A
C881        H888   1.051       .  S
C882        C883   1.433       .  A
C883        C884   1.428       .  A
C883        N890   1.427       .  S
C884        C885   1.412       .  A
C884        H889   1.084       .  S
C885        C886   1.405       .  A
C886        N887   1.432       .  S
N887        O891   1.262       .  A
N887        O892   1.262       .  A
N890        O894   1.262       .  A
N890        O893   1.262       .  A
O895        C903   1.266       .  A
O895      Co1064   2.000   1_565  S
O896        C904   1.278       .  A
O896       Co916   1.920       .  S
O897        C905   1.275       .  A
O898        C906   1.300       .  A
O899        C905   1.260       .  A
O900        C906   1.276       .  A
O901        C904   1.290       .  A
O901       Co918   2.041       .  S
O902        C903   1.274       .  A
O902      Co1066   2.026   1_554  S
C903       C1034   1.513       .  S
C904        C975   1.473       .  S
C905        C950   1.506       .  S
C906        C964   1.490       .  S
O907        C920   1.241       .  A
O908        C921   1.275       .  A
O909        C922   1.253       .  A
O909       Co917   1.956       .  S
O910        C923   1.258       .  A
O910      Co1067   2.024       .  S
O911        C923   1.230       .  A
O911      Co1065   1.945       .  S
O912        C922   1.272       .  A
O912       Co915   2.013   1_565  S
O913        C920   1.255       .  A
O914        C921   1.249       .  A
Co915      O1044   1.998   1_545  S
Co915      O1068   1.968   1_645  S
Co916      O1060   1.948   1_554  S
Co917      O1051   2.024       .  S
Co917      O1068   2.048   1_655  S
Co918      O1059   2.021   1_554  S
O919      Co1064   1.964   1_466  S
O919      Co1066   2.049   1_455  S
C920       C1006   1.487       .  S
C921       C1017   1.456       .  S
C922        C989   1.481       .  S
C923        C936   1.476       .  S
C924        C925   1.574       .  S
C924        C927   1.563       .  S
C924        C928   1.591       .  S
C924        C933   1.567       .  S
C925        C926   1.573       .  S
C925        C931   1.587       .  S
C925       C1020   1.544       .  S
C926        C927   1.590       .  S
C926        C930   1.591       .  S
C926        C947   1.586       .  S
C927        C929   1.581       .  S
C927        C978   1.569       .  S
C928        C929   1.578       .  S
C928        C931   1.579       .  S
C928       C1003   1.569       .  S
C929        C930   1.591       .  S
C929        C961   1.566       .  S
C930        C931   1.576       .  S
C930       C1031   1.590       .  S
C931        C992   1.565       .  S
C932        C933   1.414       .  A
C932        C937   1.409       .  A
C932        H939   1.062       .  S
C933        C934   1.428       .  A
C934        C935   1.399       .  A
C934        N941   1.411       .  S
C935        C936   1.381       .  A
C935        H940   1.086       .  S
C936        C937   1.415       .  A
C937        N938   1.446       .  S
N938        O942   1.259       .  A
N938        O943   1.262       .  A
N941        O945   1.263       .  A
N941        O944   1.261       .  A
C946        C947   1.408       .  A
C946        C951   1.412       .  A
C946        H953   1.079       .  S
C947        C948   1.444       .  A
C948        C949   1.414       .  A
C948        N955   1.416       .  S
C949        C950   1.384       .  A
C949        H954   1.085       .  S
C950        C951   1.411       .  A
C951        N952   1.417       .  S
N952        O956   1.262       .  A
N952        O957   1.261       .  A
N955        O959   1.263       .  A
N955        O958   1.262       .  A
C960        C961   1.411       .  A
C960        C965   1.402       .  A
C960        H967   1.082       .  S
C961        C962   1.434       .  A
C962        C963   1.403       .  A
C962        N969   1.429       .  S
C963        C964   1.397       .  A
C963        H968   1.084       .  S
C964        C965   1.406       .  A
C965        N966   1.423       .  S
N966        O970   1.261       .  A
N966        O971   1.262       .  A
N969        O973   1.262       .  A
N969        O972   1.262       .  A
C974        C975   1.386       .  A
C974        C979   1.405       .  A
C974        H981   1.085       .  S
C975        C976   1.402       .  A
C976        C977   1.398       .  A
C976        N983   1.428       .  S
C977        C978   1.411       .  A
C977        H982   1.063       .  S
C978        C979   1.437       .  A
C979        N980   1.419       .  S
N980        O984   1.263       .  A
N980        O985   1.259       .  A
N983        O987   1.261       .  A
N983       O1135   1.262       .  A
O986       N1132   1.262       .  A
C988        C989   1.403       .  A
C988        C993   1.408       .  A
C988        H995   1.084       .  S
C989        C990   1.388       .  A
C990        C991   1.389       .  A
C990        N997   1.420       .  S
C991        C992   1.410       .  A
C991        H996   1.059       .  S
C992        C993   1.427       .  A
C993        N994   1.422       .  S
N994        O998   1.263       .  A
N994        O999   1.254       .  A
N997       O1150   1.263       .  A
N997       O1149   1.259       .  A
O1000      N1146   1.259       .  A
O1001      N1146   1.263       .  A
C1002      C1003   1.409       .  A
C1002      C1007   1.406       .  A
C1002      H1009   1.057       .  S
C1003      C1004   1.433       .  A
C1004      C1005   1.398       .  A
C1004      N1011   1.416       .  S
C1005      C1006   1.389       .  A
C1005      H1010   1.085       .  S
C1006      C1007   1.407       .  A
C1007      N1008   1.428       .  S
N1008      O1012   1.262       .  A
N1008      O1013   1.262       .  A
N1011      O1015   1.263       .  A
N1011      O1014   1.261       .  A
C1016      C1017   1.380       .  A
C1016      C1021   1.391       .  A
C1016      H1023   1.086       .  S
C1017      C1018   1.401       .  A
C1018      C1019   1.404       .  A
C1018      N1025   1.426       .  S
C1019      C1020   1.412       .  A
C1019      H1024   1.074       .  S
C1020      C1021   1.437       .  A
C1021      N1022   1.420       .  S
N1022      O1026   1.263       .  A
N1022      O1027   1.261       .  A
N1025      O1029   1.262       .  A
N1025      O1028   1.261       .  A
C1030      C1031   1.415       .  A
C1030      C1035   1.398       .  A
C1030      H1037   1.047       .  S
C1031      C1032   1.433       .  A
C1032      C1033   1.428       .  A
C1032      N1039   1.428       .  S
C1033      C1034   1.412       .  A
C1033      H1038   1.083       .  S
C1034      C1035   1.405       .  A
C1035      N1036   1.432       .  S
N1036      O1040   1.262       .  A
N1036      O1041   1.262       .  A
N1039      O1043   1.261       .  A
N1039      O1042   1.262       .  A
O1044      C1052   1.266       .  A
O1045      C1053   1.280       .  A
O1045     Co1065   1.924       .  S
O1046      C1054   1.274       .  A
O1047      C1055   1.301       .  A
O1048      C1054   1.261       .  A
O1049      C1055   1.276       .  A
O1050      C1053   1.290       .  A
O1050     Co1067   2.041       .  S
O1051      C1052   1.274       .  A
C1052      C1183   1.512       .  S
C1053      C1124   1.477       .  S
C1054      C1099   1.504       .  S
C1055      C1113   1.494       .  S
O1056      C1069   1.241       .  A
O1057      C1070   1.274       .  A
O1058      C1071   1.253       .  A
O1058     Co1066   1.956       .  S
O1059      C1072   1.256       .  A
O1060      C1072   1.230       .  A
O1061      C1071   1.271       .  A
O1061     Co1064   2.011   1_566  S
O1062      C1069   1.255       .  A
O1063      C1070   1.248       .  A
C1069      C1155   1.490       .  S
C1070      C1166   1.451       .  S
C1071      C1138   1.480       .  S
C1072      C1085   1.476       .  S
C1073      C1074   1.573       .  S
C1073      C1076   1.562       .  S
C1073      C1077   1.591       .  S
C1073      C1082   1.562       .  S
C1074      C1075   1.571       .  S
C1074      C1080   1.585       .  S
C1074      C1169   1.540       .  S
C1075      C1076   1.589       .  S
C1075      C1079   1.589       .  S
C1075      C1096   1.584       .  S
C1076      C1078   1.582       .  S
C1076      C1127   1.571       .  S
C1077      C1078   1.582       .  S
C1077      C1080   1.580       .  S
C1077      C1152   1.572       .  S
C1078      C1079   1.591       .  S
C1078      C1110   1.570       .  S
C1079      C1080   1.577       .  S
C1079      C1180   1.587       .  S
C1080      C1141   1.565       .  S
C1081      C1082   1.411       .  A
C1081      C1086   1.409       .  A
C1081      H1088   1.061       .  S
C1082      C1083   1.425       .  A
C1083      C1084   1.399       .  A
C1083      N1090   1.411       .  S
C1084      C1085   1.382       .  A
C1084      H1089   1.086       .  S
C1085      C1086   1.418       .  A
C1086      N1087   1.446       .  S
N1087      O1091   1.258       .  A
N1087      O1092   1.263       .  A
N1090      O1094   1.262       .  A
N1090      O1093   1.261       .  A
C1095      C1096   1.408       .  A
C1095      C1100   1.412       .  A
C1095      H1102   1.081       .  S
C1096      C1097   1.447       .  A
C1097      C1098   1.411       .  A
C1097      N1104   1.419       .  S
C1098      C1099   1.383       .  A
C1098      H1103   1.085       .  S
C1099      C1100   1.411       .  A
C1100      N1101   1.417       .  S
N1101      O1105   1.261       .  A
N1101      O1106   1.262       .  A
N1104      O1108   1.263       .  A
N1104      O1107   1.262       .  A
C1109      C1110   1.413       .  A
C1109      C1114   1.404       .  A
C1109      H1116   1.082       .  S
C1110      C1111   1.434       .  A
C1111      C1112   1.404       .  A
C1111      N1118   1.428       .  S
C1112      C1113   1.398       .  A
C1112      H1117   1.084       .  S
C1113      C1114   1.408       .  A
C1114      N1115   1.424       .  S
N1115      O1119   1.261       .  A
N1115      O1120   1.262       .  A
N1118      O1122   1.263       .  A
N1118      O1121   1.262       .  A
C1123      C1124   1.388       .  A
C1123      C1128   1.407       .  A
C1123      H1130   1.085       .  S
C1124      C1125   1.404       .  A
C1125      C1126   1.399       .  A
C1125      N1132   1.430       .  S
C1126      C1127   1.411       .  A
C1126      H1131   1.064       .  S
C1127      C1128   1.436       .  A
C1128      N1129   1.420       .  S
N1129      O1133   1.263       .  A
N1129      O1134   1.258       .  A
N1132      O1136   1.262       .  A
C1137      C1138   1.403       .  A
C1137      C1142   1.408       .  A
C1137      H1144   1.084       .  S
C1138      C1139   1.389       .  A
C1139      C1140   1.390       .  A
C1139      N1146   1.422       .  S
C1140      C1141   1.412       .  A
C1140      H1145   1.059       .  S
C1141      C1142   1.426       .  A
C1142      N1143   1.422       .  S
N1143      O1147   1.263       .  A
N1143      O1148   1.254       .  A
C1151      C1152   1.409       .  A
C1151      C1156   1.408       .  A
C1151      H1158   1.059       .  S
C1152      C1153   1.436       .  A
C1153      C1154   1.399       .  A
C1153      N1160   1.417       .  S
C1154      C1155   1.389       .  A
C1154      H1159   1.085       .  S
C1155      C1156   1.407       .  A
C1156      N1157   1.427       .  S
N1157      O1161   1.261       .  A
N1157      O1162   1.262       .  A
N1160      O1164   1.262       .  A
N1160      O1163   1.261       .  A
C1165      C1166   1.380       .  A
C1165      C1170   1.390       .  A
C1165      H1172   1.086       .  S
C1166      C1167   1.400       .  A
C1167      C1168   1.402       .  A
C1167      N1174   1.425       .  S
C1168      C1169   1.411       .  A
C1168      H1173   1.073       .  S
C1169      C1170   1.435       .  A
C1170      N1171   1.420       .  S
N1171      O1175   1.262       .  A
N1171      O1176   1.260       .  A
N1174      O1178   1.262       .  A
N1174      O1177   1.260       .  A
C1179      C1180   1.414       .  A
C1179      C1184   1.397       .  A
C1179      H1186   1.035       .  S
C1180      C1181   1.432       .  A
C1181      C1182   1.427       .  A
C1181      N1188   1.427       .  S
C1182      C1183   1.412       .  A
C1182      H1187   1.083       .  S
C1183      C1184   1.405       .  A
C1184      N1185   1.432       .  S
N1185      O1189   1.262       .  A
N1185      O1190   1.262       .  A
N1188      O1192   1.262       .  A
N1188      O1191   1.262       .  A
