geometry optimzed in LAMMPS
_audit_creation_date              2020-12-01 
_audit_creation_method            'lammps2cif' 
_symmetry_space_group_name_H-M    'P1' 
_symmetry_Int_Tables_number       1 
_symmetry_cell_setting            triclinic 
loop_ 
_symmetry_equiv_pos_as_xyz 
  x,y,z 
_cell_length_a                    63.06103304 
_cell_length_b                    63.20651148258848 
_cell_length_c                    44.299566224054864 
_cell_angle_alpha                 80.28507274825785 
_cell_angle_beta                  92.1731180647037 
_cell_angle_gamma                 122.85927745314692 
loop_ 
_atom_site_label 
_atom_site_type_symbol 
_atom_site_fract_x 
_atom_site_fract_y 
_atom_site_fract_z 
_atom_site_charge 
N1          N  0.53361205  0.86977412  0.46861080    -0.03100
C2          C  0.52586308  0.84460410  0.47428720    -0.00600
C3          C  0.50661292  0.82610094  0.00996727    -0.23400
C4          C  0.51063752  0.84560885  0.02374808    -0.23600
C5          C  0.52206394  0.86744379  0.00167601    -0.00700
H6          H  0.49935411  0.80667397  0.02142145     0.13100
H7          H  0.50634959  0.84422409  0.04770750     0.13200
N8          N  0.32981495  0.90065780  0.45167262    -0.03100
C9          C  0.30435301  0.88562065  0.44926290    -0.00600
C10         C  0.29093098  0.88999827  0.96366329    -0.23400
C11         C  0.30817264  0.91036045  0.97698770    -0.23600
C12         C  0.33307581  0.91637727  0.47155404    -0.00700
H13         H  0.27060195  0.87935621  0.96792678     0.13100
H14         H  0.30359856  0.91824712  0.99364145     0.13200
O15         O  0.45557587  0.98102522  0.25344508    -0.75000
O16         O  0.48668075  0.99983929  0.28617995    -0.53900
C17         C  0.46330027  0.98451275  0.28054652     0.78800
O18         O  0.54146169  0.98858183  0.14681671    -0.59600
O19         O  0.53162194  0.01101052  0.10955126    -0.52600
C20         C  0.53803104  0.99491727  0.11865165     0.70800
O21         O  0.53725224  0.97713151  0.25212675    -0.74100
O22         O  0.53622108  0.00063451  0.28519111    -0.54700
C23         C  0.53796650  0.98241866  0.27923778     0.76800
O24         O  0.45527229  0.98690375  0.15069249    -0.59300
O25         O  0.48588745  0.01125412  0.11189094    -0.52400
C26         C  0.46287552  0.99437466  0.12191650     0.73400
Zr27       Zr  0.47347792  0.99619886  0.20076109     2.54700
O28         O  0.44892478  0.94966003  0.20914237    -0.79800
O29         O  0.43627381  0.99872080  0.19974313    -0.93200
Zr30       Zr  0.53630240  0.99517554  0.19850648     2.64700
O31         O  0.51157150  0.94893879  0.20126482    -0.98200
O32         O  0.57426792  0.99392457  0.20132887    -0.80300
O33         O  0.50475215  0.99287499  0.22913962    -0.83600
O34         O  0.50394984  0.99660140  0.17053809    -2.18300
O35         O  0.51267794  0.08916111  0.14053010    -0.67000
O36         O  0.51402338  0.06590724  0.10729598    -0.51600
C37         C  0.51172544  0.08376754  0.11354505     0.71800
O38         O  0.59235903  0.08772245  0.23563719    -0.59900
O39         O  0.56477207  0.05930377  0.27614790    -0.51900
C40         C  0.58517156  0.08033597  0.26437482     0.73600
O41         O  0.59343666  0.08717950  0.13395422    -0.71300
O42         O  0.56089975  0.06830998  0.10292894    -0.50000
C43         C  0.58411202  0.08448630  0.10739475     0.74900
O44         O  0.52454191  0.08695856  0.24276387    -0.66600
O45         O  0.52590556  0.05879788  0.28115954    -0.53800
C46         C  0.52704957  0.07967829  0.27105035     0.73300
Zr47       Zr  0.51552185  0.07176268  0.19303127     2.77500
O48         O  0.53511040  0.11796228  0.18279201    -0.97400
O49         O  0.47449316  0.06579029  0.20082831    -0.78200
Zr50       Zr  0.57786023  0.07075933  0.18815172     2.70100
O51         O  0.60527273  0.11726342  0.17748503    -0.79500
O52         O  0.61379587  0.06608395  0.19211708    -0.98500
Zr53       Zr  0.52645887  0.02913502  0.25395019     2.21500
Zr54       Zr  0.52425733  0.03692341  0.13679005     2.11100
O55         O  0.54610943  0.07352782  0.16113206    -2.47200
O56         O  0.54715952  0.06892221  0.21945524    -0.79300
O57         O  0.49351466  0.03614858  0.16722332    -0.71400
O58         O  0.55836544  0.03123533  0.22341279    -2.32400
O59         O  0.49426874  0.03187725  0.22692658    -2.28600
O60         O  0.55687148  0.03469834  0.16335471    -0.73200
H61         H  0.49565053  0.98264705  0.15919830     0.78800
H62         H  0.57087308  0.03052987  0.23607250     0.79900
H63         H  0.55394303  0.08924369  0.14628678     0.82100
H64         H  0.48260243  0.03152358  0.24084043     0.79700
H65         H  0.58747609  0.01027304  0.18873749     0.42700
H66         H  0.61875922  0.06726127  0.17065859     0.41700
H67         H  0.62267455  0.12099526  0.17813467     0.41400
H68         H  0.52470643  0.12096851  0.19545489     0.39300
H69         H  0.47571579  0.07269096  0.21973835     0.42500
H70         H  0.43933441  0.01023718  0.21431059     0.37200
H71         H  0.43165688  0.94480371  0.20371631     0.43400
H72         H  0.50725584  0.94614678  0.17996819     0.39800
H73         H  0.55144355  0.12500267  0.19257093     0.44700
H74         H  0.42242180  0.98160346  0.21005586     0.43400
H75         H  0.52392876  0.94394948  0.20584845     0.43600
H76         H  0.62767265  0.08215259  0.19820713     0.43900
N77         N  0.55539195  0.20976300  0.42335458    -0.03100
C78         C  0.56430730  0.23509339  0.41997436    -0.00600
C79         C  0.58613304  0.24941892  0.40081314    -0.23400
C80         C  0.59037721  0.23236534  0.39134614    -0.23600
C81         C  0.57111591  0.20818526  0.40503409    -0.00700
H82         H  0.59620026  0.26972459  0.39183491     0.13100
H83         H  0.60404041  0.23690936  0.37327677     0.13200
N84         N  0.69837240  0.20645376  0.42680038    -0.03100
C85         C  0.72255174  0.22720506  0.42528003    -0.00600
C86         C  0.73147982  0.23834992  0.39509640    -0.23400
C87         C  0.71229138  0.22429596  0.37728807    -0.23600
C88         C  0.69231639  0.20490626  0.39711009    -0.00700
H89         H  0.74998985  0.25498715  0.38690750     0.13100
H90         H  0.71315976  0.22718926  0.35246096     0.13200
O91         O  0.06900671  0.50576650  0.38036453    -0.75000
O92         O  0.04398512  0.50639128  0.41579944    -0.53900
C93         C  0.06306025  0.50576056  0.40780356     0.78800
O94         O  0.05887966  0.58085435  0.26120322    -0.59600
O95         O  0.03558937  0.54824452  0.23451340    -0.52600
C96         C  0.05238901  0.57162938  0.23597211     0.70800
O97         O  0.06639434  0.58128145  0.36572225    -0.74100
O98         O  0.04175489  0.55231917  0.40777782    -0.54700
C99         C  0.06055777  0.57430660  0.39493882     0.76800
O100        O  0.05837769  0.49491050  0.28158088    -0.59300
O101        O  0.03642236  0.50376091  0.24526810    -0.52400
C102        C  0.05231859  0.49759483  0.25366341     0.73400
Zr103      Zr  0.04953178  0.50149214  0.33158508     2.54700
O104        O  0.09479016  0.52526229  0.31810415    -0.79800
O105        O  0.04719135  0.46149552  0.34748672    -0.93200
Zr106      Zr  0.04958428  0.56547408  0.31742339     2.64700
O107        O  0.09543565  0.59086066  0.30854368    -0.98200
O108        O  0.04980133  0.60453256  0.31287121    -0.80300
O109        O  0.05058155  0.53383060  0.35366517    -0.83600
O110        O  0.04931315  0.53352415  0.29571914    -2.18300
O111        O  0.96103023  0.44129934  0.29525991    -0.67000
O112        O  0.98064210  0.47310916  0.25355534    -0.51600
C113        C  0.96489891  0.44979158  0.26611732     0.71800
O114        O  0.96097848  0.52509075  0.37574384    -0.59900
O115        O  0.98392668  0.51928881  0.41348785    -0.51900
C116        C  0.96665575  0.52341108  0.40385482     0.73600
O117        O  0.95803691  0.52349270  0.27540000    -0.71300
O118        O  0.98238082  0.51995519  0.24242442    -0.50000
C119        C  0.96454574  0.52290415  0.24852458     0.74900
O120        O  0.96058874  0.44467826  0.39665003    -0.66600
O121        O  0.98647619  0.47507426  0.42520929    -0.53800
C122        C  0.96744602  0.45282392  0.42226421     0.73300
Zr123      Zr  0.97445771  0.45960002  0.34218665     2.77500
O124        O  0.92837382  0.43578940  0.34578948    -0.97400
O125        O  0.97399422  0.42033391  0.35478136    -0.78200
Zr126      Zr  0.97455466  0.52362279  0.32616872     2.70100
O127        O  0.92867659  0.50159195  0.32882324    -0.79500
O128        O  0.98234415  0.56638207  0.31467432    -0.98500
Zr129      Zr  0.01359541  0.51323301  0.38767151     2.21500
Zr130      Zr  0.01000579  0.51149278  0.27296047     2.11100
O131        O  0.97277221  0.49057369  0.30568614    -2.47200
O132        O  0.97500774  0.49197206  0.36312128    -0.79300
O133        O  0.01089570  0.47914198  0.30797613    -0.71400
O134        O  0.01277203  0.54530301  0.35126476    -2.32400
O135        O  0.01315101  0.48057025  0.36644344    -2.28600
O136        O  0.01115758  0.54481533  0.29247060    -0.73200
H137        H  0.06339284  0.54131109  0.28070436     0.78800
H138        H  0.01299032  0.55778141  0.36147369     0.79900
H139        H  0.95777237  0.48226994  0.29446283     0.82100
H140        H  0.01380234  0.46847563  0.38239770     0.79700
H141        H  0.03175792  0.59878725  0.31299147     0.42700
H142        H  0.96994860  0.56522543  0.29955995     0.41700
H143        H  0.92253929  0.48325139  0.33472432     0.41400
H144        H  0.92399038  0.44126660  0.36292233     0.39300
H145        H  0.98942716  0.42424505  0.34378917     0.42500
H146        H  0.06489294  0.46629842  0.34505717     0.37200
H147        H  0.10178474  0.54167328  0.32536658     0.43400
H148        H  0.10119949  0.60642290  0.31730524     0.39800
H149        H  0.92387850  0.44335234  0.32726073     0.44700
H150        H  0.03856957  0.45156588  0.33096164     0.43400
H151        H  0.10112672  0.58125620  0.32266307     0.43600
H152        H  0.97649123  0.56861137  0.33360576     0.43900
N153        N  0.16936485  0.49842340  0.07476087    -0.03100
C154        C  0.19443934  0.50670443  0.07347198    -0.00600
C155        C  0.20469146  0.51339214  0.10109993    -0.23400
C156        C  0.18571009  0.50893656  0.12018628    -0.23600
C157        C  0.16425407  0.49964376  0.10388202    -0.00700
H158        H  0.22381632  0.51990905  0.10720723     0.13100
H159        H  0.18722992  0.51173751  0.14381005     0.13200
N160        N  0.84587128  0.32760948  0.10309407    -0.03100
C161        C  0.82221223  0.30639652  0.10220149    -0.00600
C162        C  0.81244870  0.29241912  0.13123691    -0.23400
C163        C  0.83033634  0.30508376  0.15098451    -0.23600
C164        C  0.85055303  0.32660826  0.13350205    -0.00700
H165        H  0.79426976  0.27466832  0.13733834     0.13100
H166        H  0.82846921  0.29951089  0.17570257     0.13200
N167        N  0.86754422  0.54963241  0.54704170    -0.03100
C168        C  0.85422438  0.56105849  0.54083813    -0.00600
C169        C  0.85680806  0.57640831  0.06931616    -0.23400
C170        C  0.87135803  0.57232104  0.08988893    -0.23600
C171        C  0.87744749  0.55732520  0.07813203    -0.00700
H172        H  0.84696627  0.58555447  0.07288715     0.13100
H173        H  0.87563186  0.57814286  0.11212153     0.13200
N174        N  0.17587191  0.69539965  0.53133553    -0.03100
C175        C  0.20076102  0.71436363  0.52487416    -0.00600
C176        C  0.21535398  0.71795834  0.05051762    -0.23400
C177        C  0.19702049  0.70312054  0.07374739    -0.23600
C178        C  0.17501916  0.68727072  0.06042862    -0.00700
H179        H  0.23443744  0.73355058  0.05303262     0.13100
H180        H  0.19930002  0.70427663  0.09787597     0.13200
O181        O  0.56872156  0.52426430  0.12459035    -0.75000
O182        O  0.54187552  0.52258182  0.08763514    -0.53900
C183        C  0.56241133  0.52417245  0.09655076     0.78800
O184        O  0.48039457  0.44045135  0.23763425    -0.59600
O185        O  0.48703839  0.46912404  0.26791027    -0.52600
C186        C  0.48146900  0.44699718  0.26395944     0.70800
O187        O  0.48231523  0.44545278  0.13412878    -0.74100
O188        O  0.49073227  0.47698873  0.09342311    -0.54700
C189        C  0.48466130  0.45425969  0.10515888     0.76800
O190        O  0.56921687  0.52916850  0.22596196    -0.59300
O191        O  0.53705287  0.51585207  0.26120617    -0.52400
C192        C  0.56005525  0.52408080  0.25372196     0.73400
Zr193      Zr  0.55292752  0.52367393  0.17464554     2.54700
O194        O  0.56896201  0.49593847  0.18448265    -0.79800
O195        O  0.59569901  0.56175990  0.16703760    -0.93200
Zr196      Zr  0.48475303  0.45926437  0.18322059     2.64700
O197        O  0.50339432  0.43387294  0.18634427    -0.98200
O198        O  0.44284097  0.41996109  0.19036123    -0.80300
O199        O  0.51944400  0.49257036  0.14956056    -0.83600
O200        O  0.51860291  0.48996948  0.20842441    -2.18300
O201        O  0.52514849  0.57830101  0.21423992    -0.67000
O202        O  0.51678892  0.54685939  0.25509676    -0.51600
C203        C  0.52323483  0.56972665  0.24324353     0.71800
O204        O  0.43643539  0.49733553  0.12394097    -0.59900
O205        O  0.46782079  0.50933733  0.08805358    -0.51900
C206        C  0.44525491  0.50275840  0.09601388     0.73600
O207        O  0.43777161  0.49965996  0.22542508    -0.71300
O208        O  0.46514814  0.50097075  0.26143942    -0.50000
C209        C  0.44477768  0.49970008  0.25322346     0.74900
O210        O  0.52395599  0.58216142  0.11056848    -0.66600
O211        O  0.51614289  0.55315705  0.08031851    -0.53800
C212        C  0.52160437  0.57526481  0.08415816     0.73300
Zr213      Zr  0.52132408  0.56405805  0.16508021     2.77500
O214        O  0.50289781  0.58974553  0.15802113    -0.97400
O215        O  0.56394216  0.60219193  0.16028321    -0.78200
Zr216      Zr  0.45287148  0.49957555  0.17488538     2.70100
O217        O  0.43487857  0.52545345  0.16299235    -0.79500
O218        O  0.41105831  0.46025063  0.18520633    -0.98500
Zr219      Zr  0.50421036  0.51423740  0.11567863     2.21500
Zr220      Zr  0.50145995  0.50898991  0.23258149     2.11100
O221        O  0.48652680  0.53125501  0.19913023    -2.47200
O222        O  0.48739367  0.53284969  0.14089144    -0.79300
O223        O  0.53663649  0.54290552  0.19935166    -0.71400
O224        O  0.46887051  0.48020610  0.14929570    -2.32400
O225        O  0.53871130  0.54594308  0.13988387    -2.28600
O226        O  0.46715368  0.47709996  0.20869380    -0.73200
H227        H  0.52474788  0.48178010  0.22326463     0.78800
H228        H  0.45581726  0.46820023  0.13779683     0.79900
H229        H  0.48052818  0.53907298  0.21031542     0.82100
H230        H  0.55218892  0.55891383  0.12492317     0.79700
H231        H  0.43444921  0.42119247  0.17141701     0.42700
H232        H  0.41136602  0.44873006  0.17287073     0.41700
H233        H  0.44460196  0.53966810  0.17456149     0.41400
H234        H  0.49022930  0.58252610  0.17552779     0.39300
H235        H  0.57513993  0.59565863  0.16121787     0.42500
H236        H  0.59550152  0.57262719  0.14826107     0.37200
H237        H  0.55747773  0.48134348  0.17409809     0.43400
H238        H  0.51776814  0.44193305  0.19949422     0.39800
H239        H  0.51656037  0.60671852  0.16222625     0.44700
H240        H  0.60623700  0.55580010  0.16079213     0.43400
H241        H  0.49084190  0.41723157  0.19905742     0.43600
H242        H  0.41084887  0.45265209  0.20674484     0.43900
N243        N  0.46189812  0.32572138  0.45376546    -0.03100
C244        C  0.46229771  0.30414169  0.45583920    -0.00600
C245        C  0.45218788  0.28879689  0.48418116    -0.23400
C246        C  0.44591693  0.30125593  0.50056804    -0.23600
C247        C  0.45210969  0.32393753  0.48172468    -0.00700
H248        H  0.45171496  0.27148598  0.49304248     0.13100
H249        H  0.41036340  0.29435101  0.01375490     0.13200
N250        N  0.32463049  0.49454494  0.43329030    -0.03100
C251        C  0.32832065  0.49409987  0.40329851    -0.00600
C252        C  0.30711485  0.48856670  0.38756187    -0.23400
C253        C  0.28959021  0.48530674  0.40819045    -0.23600
C254        C  0.30055815  0.48904248  0.43605214    -0.00700
H255        H  0.30475377  0.48724424  0.36348380     0.13100
H256        H  0.27103399  0.48153506  0.40312136     0.13200
N257        N  0.67698406  0.52263433  0.44375391    -0.03100
C258        C  0.69456418  0.51629637  0.44884619    -0.00600
C259        C  0.69876011  0.50879082  0.42334731    -0.23400
C260        C  0.68384353  0.51073393  0.40152943    -0.23600
C261        C  0.67087332  0.51930229  0.41427879    -0.00700
H262        H  0.71251582  0.50397412  0.42030904     0.13100
H263        H  0.68305781  0.50705182  0.37838253     0.13200
N264        N  0.54878088  0.70375224  0.39339944    -0.03100
C265        C  0.55182326  0.69883000  0.36560069    -0.00600
C266        C  0.56245806  0.72072867  0.34359596    -0.23400
C267        C  0.56613615  0.73988990  0.35782584    -0.23600
C268        C  0.55755431  0.72921770  0.38820853    -0.00700
H269        H  0.56601652  0.72226450  0.31935810     0.13100
H270        H  0.57280283  0.75925628  0.34669153     0.13200
C271        C  0.39000864  0.53953309  0.31515847    -0.17500
C272        C  0.40488207  0.53924722  0.29280566    -0.19700
C273        C  0.40984211  0.51987251  0.29640848     0.21000
C274        C  0.40083257  0.50136138  0.32357774    -0.02600
C275        C  0.38565642  0.50155606  0.34610417    -0.05600
C276        C  0.37974810  0.52038001  0.34141181     0.21300
C277        C  0.37562659  0.48239227  0.37269803     0.19400
C278        C  0.38202144  0.46402999  0.37718990    -0.17100
C279        C  0.39742951  0.46409571  0.35509178    -0.19400
C280        C  0.40652163  0.48235788  0.32791916     0.20900
C281        C  0.42098113  0.48186683  0.30488644    -0.32400
C282        C  0.42904911  0.49961908  0.27723586     0.01600
C283        C  0.42349740  0.51859926  0.27323738    -0.23700
C284        C  0.36265159  0.51897371  0.36219060    -0.28300
C285        C  0.35126374  0.49900662  0.38757708     0.07300
C286        C  0.35845404  0.48125691  0.39342114    -0.26900
H287        H  0.38594028  0.55434016  0.31149058     0.12000
H288        H  0.41212198  0.55392498  0.27241322     0.13100
H289        H  0.37472430  0.44931481  0.39754425     0.12200
H290        H  0.40180312  0.44951358  0.35897295     0.11500
H291        H  0.42558892  0.46744784  0.30816509     0.16800
H292        H  0.43028459  0.53269350  0.25227307     0.12800
H293        H  0.35694657  0.53254435  0.35765809     0.15600
H294        H  0.34944647  0.46569307  0.41283712     0.15400
C295        C  0.41194398  0.53395695  0.46423526    -0.17500
C296        C  0.43194319  0.53955699  0.99494743    -0.19700
C297        C  0.42212799  0.52095167  0.02171732     0.21000
C298        C  0.39580208  0.50279190  0.02603172    -0.02600
C299        C  0.37956690  0.50341351  0.00339751    -0.05600
C300        C  0.38584207  0.51747263  0.47178099     0.21300
C301        C  0.35320563  0.48539344  0.00773483     0.19400
C302        C  0.34335271  0.46694521  0.03471427    -0.17100
C303        C  0.35943344  0.46626473  0.05706696    -0.19400
C304        C  0.38568713  0.48413329  0.05300668     0.20900
C305        C  0.40195973  0.48390657  0.07556173    -0.32400
C306        C  0.42827132  0.50199017  0.07140503     0.01600
C307        C  0.43815535  0.52036897  0.04432658    -0.23700
C308        C  0.36826805  0.51636428  0.45060623    -0.28300
C309        C  0.34214828  0.49827844  0.45707601     0.07300
C310        C  0.33727795  0.48578574  0.98474106    -0.26900
H311        H  0.41890722  0.54632909  0.44200481     0.12000
H312        H  0.44930051  0.54677879  0.47834624     0.13100
H313        H  0.32318300  0.45293263  0.03847719     0.12200
H314        H  0.35130356  0.45178554  0.07761256     0.11500
H315        H  0.39416968  0.46970381  0.09639984     0.16800
H316        H  0.45828040  0.53462924  0.04121865     0.12800
H317        H  0.37498506  0.52915305  0.42866976     0.15600
H318        H  0.31716146  0.47143096  0.98765056     0.15400
C319        C  0.50461458  0.64399512  0.29213379    -0.17500
C320        C  0.50267017  0.62784065  0.27280689    -0.19700
C321        C  0.51594086  0.61573027  0.27820980     0.21000
C322        C  0.53102243  0.61949876  0.30362778    -0.02600
C323        C  0.53332271  0.63619636  0.32291478    -0.05600
C324        C  0.52019293  0.64860658  0.31684580     0.21300
C325        C  0.54949093  0.64129181  0.34740563     0.19400
C326        C  0.56221667  0.62853965  0.35319056    -0.17100
C327        C  0.55948833  0.61148552  0.33441435    -0.19400
C328        C  0.54414334  0.60702077  0.30933760     0.20900
C329        C  0.54165078  0.59045068  0.28974992    -0.32400
C330        C  0.52686061  0.58708777  0.26415812     0.01600
C331        C  0.51431296  0.59992654  0.25851032    -0.23700
C332        C  0.52414778  0.66676637  0.33422078    -0.28300
C333        C  0.54190797  0.67371283  0.35666633     0.07300
C334        C  0.55379857  0.66022269  0.36421699    -0.26900
H335        H  0.49448853  0.65346954  0.28722138     0.12000
H336        H  0.49092413  0.62496948  0.25346276     0.13100
H337        H  0.57463120  0.63209278  0.37191141     0.12200
H338        H  0.56971079  0.60210723  0.33921422     0.11500
H339        H  0.55141286  0.58055257  0.29404442     0.16800
H340        H  0.50269323  0.59707344  0.23900111     0.12800
H341        H  0.51508146  0.67727813  0.32843506     0.15600
H342        H  0.56762915  0.66572417  0.38145690     0.15400
C343        C  0.56259988  0.68199979  0.00327308    -0.17500
C344        C  0.55888531  0.66449779  0.02980031    -0.19700
C345        C  0.54332122  0.63807111  0.03002001     0.21000
C346        C  0.53139401  0.62922499  0.00317084    -0.02600
C347        C  0.53462563  0.64692511  0.97661188    -0.05600
C348        C  0.55043340  0.67341977  0.97663138     0.21300
C349        C  0.52114674  0.64274676  0.45100708     0.19400
C350        C  0.50454114  0.61634403  0.45185740    -0.17100
C351        C  0.50515222  0.59422131  0.97566426    -0.19400
C352        C  0.51660139  0.60274442  0.00267117     0.20900
C353        C  0.51379343  0.58531245  0.02902560    -0.32400
C354        C  0.52512602  0.59392297  0.05620521     0.01600
C355        C  0.53976488  0.62039147  0.05646836    -0.23700
C356        C  0.55673822  0.69538757  0.44807648    -0.28300
C357        C  0.54228372  0.68663266  0.42265629     0.07300
C358        C  0.52372754  0.66033672  0.42504858    -0.26900
H359        H  0.57494356  0.70229143  0.00363752     0.12000
H360        H  0.56840599  0.67165212  0.05008284     0.13100
H361        H  0.49319602  0.60918037  0.43263507     0.12200
H362        H  0.49067556  0.57862844  0.47681717     0.11500
H363        H  0.50259594  0.56500551  0.02843578     0.16800
H364        H  0.54883415  0.62726877  0.07708976     0.12800
H365        H  0.57125312  0.71552985  0.44646007     0.15600
H366        H  0.51187558  0.65338572  0.40617888     0.15400
C367        C  0.58609319  0.49644108  0.38412327    -0.17500
C368        C  0.57062106  0.49709217  0.36102409    -0.19700
C369        C  0.58131959  0.51315168  0.33250007     0.21000
C370        C  0.60781898  0.52933177  0.32742966    -0.02600
C371        C  0.62341052  0.52913908  0.35098667    -0.05600
C372        C  0.61249542  0.51218789  0.37925633     0.21300
C373        C  0.64992105  0.54497542  0.34569136     0.19400
C374        C  0.66062674  0.56120288  0.31727750    -0.17100
C375        C  0.64516181  0.56106087  0.29375650    -0.19400
C376        C  0.61875954  0.54491642  0.29843594     0.20900
C377        C  0.60313459  0.54347653  0.27439768    -0.32400
C378        C  0.57671795  0.52706744  0.27921916     0.01600
C379        C  0.56597320  0.51253369  0.30858434    -0.23700
C380        C  0.62817871  0.51033815  0.40143883    -0.28300
C381        C  0.65450255  0.52543210  0.39564046     0.07300
C382        C  0.66525711  0.54322942  0.36824846    -0.26900
H383        H  0.57741095  0.48330709  0.40560340     0.12000
H384        H  0.55027125  0.48449260  0.36516821     0.13100
H385        H  0.68098438  0.57344936  0.31294030     0.12200
H386        H  0.65386263  0.57323640  0.27173281     0.11500
H387        H  0.61150831  0.55491503  0.25192109     0.16800
H388        H  0.54560639  0.49976235  0.31250175     0.12800
H389        H  0.61998938  0.49624986  0.42233806     0.15600
H390        H  0.68563979  0.55453353  0.36374680     0.15400
C391        C  0.62117666  0.49975255  0.07008159    -0.17500
C392        C  0.63802591  0.50065776  0.04935284    -0.19700
C393        C  0.64363987  0.51521481  0.01968299     0.21000
C394        C  0.63239872  0.52929970  0.01104067    -0.02600
C395        C  0.61508685  0.52815164  0.03192646    -0.05600
C396        C  0.60949027  0.51331113  0.06157403     0.21300
C397        C  0.60316627  0.54157296  0.02301304     0.19400
C398        C  0.60921373  0.55650968  0.99349981    -0.17100
C399        C  0.62502702  0.55502625  0.46930119    -0.19400
C400        C  0.63666822  0.54145979  0.47833886     0.20900
C401        C  0.65335044  0.54153063  0.45785123    -0.32400
C402        C  0.66362819  0.52642308  0.46629009     0.01600
C403        C  0.65944057  0.51505025  0.99818369    -0.23700
C404        C  0.59232166  0.51224318  0.08219883    -0.28300
C405        C  0.58008301  0.52535882  0.07360185     0.07300
C406        C  0.58549104  0.53982854  0.04372835    -0.26900
H407        H  0.61710406  0.48822414  0.09273787     0.12000
H408        H  0.64647087  0.48971721  0.05644858     0.13100
H409        H  0.59927851  0.56490007  0.48196254     0.12200
H410        H  0.62883970  0.56594155  0.44629080     0.11500
H411        H  0.65790439  0.55301460  0.43515626     0.16800
H412        H  0.66676344  0.50300271  0.00458442     0.10100
H413        H  0.58822408  0.50089315  0.10500062     0.15600
H414        H  0.57638812  0.55015874  0.03687621     0.15400
C415        C  0.43391222  0.39095465  0.36204278    -0.17500
C416        C  0.43100280  0.37350195  0.38832208    -0.19700
C417        C  0.44864138  0.36642989  0.39359295     0.21000
C418        C  0.46919913  0.37681290  0.37198558    -0.02600
C419        C  0.47171874  0.39380052  0.34503489    -0.05600
C420        C  0.45421058  0.40123366  0.34021343     0.21300
C421        C  0.49179235  0.40333048  0.32291940     0.19400
C422        C  0.50934066  0.39620305  0.32812882    -0.17100
C423        C  0.50727431  0.38003793  0.35520838    -0.19400
C424        C  0.48726401  0.37019627  0.37723009     0.20900
C425        C  0.48505219  0.35380190  0.40430425    -0.32400
C426        C  0.46450206  0.34298716  0.42590287     0.01600
C427        C  0.44614347  0.34919327  0.42002092    -0.23700
C428        C  0.45741773  0.41880107  0.31369578    -0.28300
C429        C  0.47732404  0.42812703  0.29155333     0.07300
C430        C  0.49414164  0.42000744  0.29609689    -0.26900
H431        H  0.42019585  0.39629374  0.35870420     0.12000
H432        H  0.41507654  0.36571624  0.40467519     0.13100
H433        H  0.52484406  0.40335020  0.31136762     0.12200
H434        H  0.52123042  0.37503725  0.35880507     0.11500
H435        H  0.49957515  0.34983547  0.40842796     0.16800
H436        H  0.42997335  0.34068795  0.43621319     0.12800
H437        H  0.44436547  0.42500115  0.31006808     0.15600
H438        H  0.50954160  0.42733235  0.27906400     0.15400
C439        C  0.45082307  0.42093473  0.00975635    -0.17500
C440        C  0.44389463  0.40247563  0.99138035    -0.19700
C441        C  0.44949220  0.38369023  0.99950163     0.21000
C442        C  0.46288993  0.38395808  0.02593615    -0.02600
C443        C  0.46958504  0.40233907  0.04463110    -0.05600
C444        C  0.46327663  0.42075193  0.03664902     0.21300
C445        C  0.48185173  0.40176242  0.07182026     0.19400
C446        C  0.48817569  0.38348356  0.07948016    -0.17100
C447        C  0.48971543  0.41546383  0.48764501    -0.19400
C448        C  0.46883116  0.36531084  0.03429288     0.20900
C449        C  0.46980555  0.37058973  0.48289371    -0.32400
C450        C  0.45173876  0.34445029  0.49356835     0.01600
C451        C  0.44128793  0.36417502  0.98227840    -0.23700
C452        C  0.46888832  0.43817459  0.05617194    -0.28300
C453        C  0.48014791  0.43696026  0.08384573     0.07300
C454        C  0.48693178  0.41900961  0.09131526    -0.26900
H455        H  0.44594840  0.43502329  0.00328988     0.12000
H456        H  0.43380336  0.40264386  0.97108658     0.13100
H457        H  0.49770306  0.38290747  0.10018648     0.12200
H458        H  0.50184052  0.42161868  0.46710938     0.11500
H459        H  0.48326454  0.37635255  0.46396976     0.16800
H460        H  0.43027560  0.36321055  0.96255325     0.12800
H461        H  0.46369304  0.45208389  0.05040674     0.15600
H462        H  0.49603661  0.41839855  0.11242084     0.15400
C463        C  0.79958931  0.58646030  0.49007626    -0.17500
C464        C  0.77530374  0.58008581  0.48237502    -0.19700
C465        C  0.75542175  0.55437240  0.48433352     0.21000
C466        C  0.76007637  0.53491299  0.49470496    -0.02600
C467        C  0.78467946  0.54135977  0.50216719    -0.05600
C468        C  0.80448431  0.56725294  0.49972957     0.21300
C469        C  0.78944431  0.52191571  0.51207288     0.19400
C470        C  0.76845592  0.49845159  0.02127287    -0.17100
C471        C  0.74523892  0.48983059  0.50644284    -0.19400
C472        C  0.74037078  0.50902408  0.49654706     0.20900
C473        C  0.71664508  0.50282727  0.48635533    -0.32400
C474        C  0.71252423  0.52211881  0.47336106     0.01600
C475        C  0.73152573  0.54781732  0.47400612    -0.23700
C476        C  0.82860179  0.57349464  0.50820208    -0.28300
C477        C  0.83313552  0.55428268  0.52025983     0.07300
C478        C  0.81372210  0.52850327  0.52094038    -0.26900
H479        H  0.81459514  0.60645859  0.48837574     0.12000
H480        H  0.77217116  0.59529655  0.47442003     0.13100
H481        H  0.77137915  0.48326377  0.03037860     0.12200
H482        H  0.72944357  0.47200928  0.01400722     0.11500
H483        H  0.70222569  0.48305252  0.48519428     0.16800
H484        H  0.72870700  0.56277043  0.46323861     0.12800
H485        H  0.84343203  0.59339665  0.50794436     0.15600
H486        H  0.81566870  0.51593607  0.03853432     0.15400
C487        C  0.20701431  0.46054551  0.00290908    -0.17500
C488        C  0.22348754  0.45804552  0.98564572    -0.19700
C489        C  0.24952384  0.47699956  0.98204783     0.21000
C490        C  0.25707381  0.49829086  0.49755545    -0.02600
C491        C  0.24157005  0.50299265  0.51377248    -0.05600
C492        C  0.21617918  0.48221271  0.01659087     0.21300
C493        C  0.25258799  0.52549399  0.52638192     0.19400
C494        C  0.27881395  0.54339798  0.52199320    -0.17100
C495        C  0.29412055  0.53889875  0.50557735    -0.19400
C496        C  0.28351355  0.51632407  0.49341218     0.20900
C497        C  0.29863242  0.51198314  0.47600966    -0.32400
C498        C  0.28748508  0.48997767  0.46248693     0.01600
C499        C  0.26137318  0.47154121  0.46822731    -0.23700
C500        C  0.19985461  0.48473651  0.03447781    -0.28300
C501        C  0.20946391  0.50626619  0.04868058     0.07300
C502        C  0.23733742  0.52929336  0.54405158    -0.26900
H503        H  0.18706913  0.44555316  0.00545909     0.12000
H504        H  0.21583024  0.44128071  0.97501254     0.13100
H505        H  0.28752754  0.56085307  0.53142507     0.12200
H506        H  0.31427486  0.55309897  0.50239338     0.11500
H507        H  0.31859849  0.52652871  0.47108473     0.16800
H508        H  0.25847473  0.45915102  0.95174725     0.12800
H509        H  0.18006212  0.46942856  0.03864886     0.15600
H510        H  0.24600358  0.54603438  0.55494258     0.15400
C511        C  0.96551758  0.55697570  0.14031637    -0.17500
C512        C  0.95307553  0.56052054  0.11512005    -0.19700
C513        C  0.92688270  0.54950838  0.11767500     0.21000
C514        C  0.91292431  0.53392254  0.14555881    -0.02600
C515        C  0.92551762  0.53075653  0.17110522    -0.05600
C516        C  0.95196346  0.54255119  0.16846249     0.21300
C517        C  0.91176174  0.51642756  0.19949377     0.19400
C518        C  0.88543873  0.50464839  0.20174517    -0.17100
C519        C  0.87289824  0.50758733  0.17630689    -0.19400
C520        C  0.88654697  0.52254706  0.14837807     0.20900
C521        C  0.87456446  0.52785267  0.12393138    -0.32400
C522        C  0.88874365  0.54521128  0.09738155     0.01600
C523        C  0.91464545  0.55519547  0.09366945    -0.23700
C524        C  0.96444568  0.53992584  0.19409991    -0.28300
C525        C  0.95092854  0.52598033  0.22242016     0.07300
C526        C  0.92463387  0.51432318  0.22513026    -0.26900
H527        H  0.98582911  0.56597582  0.13798559     0.12000
H528        H  0.96401764  0.57236100  0.09386418     0.13100
H529        H  0.87460480  0.49347413  0.22328152     0.12200
H530        H  0.85262331  0.49879649  0.17872888     0.11500
H531        H  0.85454048  0.52039812  0.12657790     0.16800
H532        H  0.92546303  0.56877058  0.07315862     0.12800
H533        H  0.98480266  0.54900354  0.19216005     0.15600
H534        H  0.91423249  0.50329171  0.24696639     0.15400
C535        C  0.90257946  0.56261005  0.44347947    -0.17500
C536        C  0.91759633  0.55994842  0.42393243    -0.19700
C537        C  0.92726964  0.54482834  0.43475368     0.21000
C538        C  0.92178873  0.53225534  0.46556058    -0.02600
C539        C  0.90619963  0.53458481  0.48518186    -0.05600
C540        C  0.89670357  0.54997578  0.47413857     0.21300
C541        C  0.90032141  0.52172959  0.51587145     0.19400
C542        C  0.91047658  0.50703184  0.52682523    -0.17100
C543        C  0.92621601  0.50502390  0.50753094    -0.19400
C544        C  0.93188432  0.51740723  0.47676279     0.20900
C545        C  0.94719631  0.51502266  0.45694059    -0.32400
C546        C  0.95213830  0.52698292  0.42593072     0.01600
C547        C  0.94218837  0.54197865  0.41520664    -0.23700
C548        C  0.88230442  0.55326117  0.49416466    -0.28300
C549        C  0.87694213  0.54122991  0.52522412     0.07300
C550        C  0.88507489  0.52444182  0.53531624    -0.26900
H551        H  0.89558290  0.57460978  0.43460393     0.12000
H552        H  0.92173219  0.56982187  0.40033330     0.13100
H553        H  0.90645450  0.49727892  0.55046571     0.12200
H554        H  0.93384230  0.49364722  0.51665365     0.11500
H555        H  0.95464279  0.50333874  0.46537668     0.16800
H556        H  0.94609884  0.55154276  0.39145967     0.12800
H557        H  0.87649872  0.56638734  0.48594008     0.15600
H558        H  0.87594698  0.51343496  0.05978418     0.15400
C559        C  0.91835891  0.36295997  0.24086479    -0.17500
C560        C  0.90375202  0.34612777  0.22093963    -0.19700
C561        C  0.89713511  0.35493805  0.19326643     0.21000
C562        C  0.90563642  0.38099479  0.18522050    -0.02600
C563        C  0.92063009  0.39803141  0.20513967    -0.05600
C564        C  0.92683024  0.38890697  0.23322130     0.21300
C565        C  0.92881228  0.42402672  0.19735086     0.19400
C566        C  0.92193663  0.43276778  0.16985489    -0.17100
C567        C  0.90676033  0.41578204  0.15030482    -0.19400
C568        C  0.89829614  0.38981911  0.15791522     0.20900
C569        C  0.88146317  0.37227041  0.13967539    -0.32400
C570        C  0.87231634  0.34614975  0.14817106     0.01600
C571        C  0.88103682  0.33786335  0.17432670    -0.23700
C572        C  0.94117717  0.40583861  0.25327848    -0.28300
C573        C  0.94973011  0.43180798  0.24533034     0.07300
C574        C  0.94347485  0.44076800  0.21737698    -0.26900
H575        H  0.92287218  0.35564904  0.26235247     0.12000
H576        H  0.89714059  0.32609096  0.22750154     0.13100
H577        H  0.92800037  0.45267977  0.16368501     0.12200
H578        H  0.90129242  0.42286768  0.12948630     0.11500
H579        H  0.87438590  0.37869516  0.11996280     0.16800
H580        H  0.87406158  0.31772177  0.18090686     0.12800
H581        H  0.94593225  0.39890852  0.27486923     0.15600
H582        H  0.94964535  0.46074021  0.21146736     0.15400
C583        C  0.93678444  0.38189518  0.54948418    -0.17500
C584        C  0.95328484  0.39971331  0.52459537    -0.19700
C585        C  0.94441399  0.40952967  0.50019993     0.21000
C586        C  0.91875284  0.40178602  0.50134734    -0.02600
C587        C  0.90211822  0.38383597  0.52648684    -0.05600
C588        C  0.91110167  0.37353018  0.55040528     0.21300
C589        C  0.87639345  0.37580773  0.52734052     0.19400
C590        C  0.86772208  0.38636719  0.50356367    -0.17100
C591        C  0.88415752  0.40406467  0.47862190    -0.19400
C592        C  0.90956546  0.41156252  0.47707367     0.20900
C593        C  0.92582970  0.42831878  0.45145382    -0.32400
C594        C  0.95121664  0.43571444  0.44992765     0.01600
C595        C  0.96058817  0.42664585  0.47450491    -0.23700
C596        C  0.89413729  0.35466835  0.57444765    -0.28300
C597        C  0.86285736  0.34626311  0.07720311     0.07300
C598        C  0.85332566  0.35265959  0.05032245    -0.26900
H599        H  0.94404484  0.37436323  0.56781967     0.12000
H600        H  0.97292687  0.40555596  0.52423448     0.13100
H601        H  0.83946326  0.36332105  0.99461250     0.12200
H602        H  0.87689618  0.41161379  0.46030379     0.11500
H603        H  0.91877806  0.43565110  0.43257026     0.16800
H604        H  0.98021695  0.43243982  0.47325085     0.12800
H605        H  0.90083460  0.34626726  0.59249823     0.15600
H606        H  0.83328226  0.34483305  0.04934013     0.15400
C607        C  0.11155742  0.45933570  0.19844254    -0.17500
C608        C  0.09751215  0.46066542  0.22082359    -0.19700
C609        C  0.08717595  0.47556933  0.21358345     0.21000
C610        C  0.09016770  0.48845346  0.18316136    -0.02600
C611        C  0.10473401  0.48747286  0.16064701    -0.05600
C612        C  0.11578013  0.47317676  0.16859132     0.21300
C613        C  0.10967226  0.50215812  0.13087426     0.19400
C614        C  0.09822273  0.51601124  0.12329460    -0.17100
C615        C  0.08306543  0.51624992  0.14537119    -0.19400
C616        C  0.07969205  0.50332363  0.17560674     0.20900
C617        C  0.06676814  0.50565962  0.19862535    -0.32400
C618        C  0.06464358  0.49372333  0.22927920     0.01600
C619        C  0.07463424  0.47845617  0.23645723    -0.23700
C620        C  0.13257404  0.47463647  0.14741536    -0.28300
C621        C  0.13970899  0.49127348  0.11901387     0.07300
C622        C  0.12739065  0.50417300  0.11018250    -0.26900
H623        H  0.12001805  0.44832621  0.20483189     0.12000
H624        H  0.09527261  0.45054327  0.24399313     0.13100
H625        H  0.10145470  0.52713468  0.10052516     0.12200
H626        H  0.07445883  0.52702310  0.13899079     0.11500
H627        H  0.05916533  0.51753234  0.19286187     0.16800
H628        H  0.07280201  0.46895795  0.25990072     0.12800
H629        H  0.14218436  0.46479711  0.15423446     0.15600
H630        H  0.13306039  0.51725887  0.08845155     0.15400
C631        C  0.16343264  0.53797837  0.46983351    -0.17500
C632        C  0.14798511  0.53826174  0.44639786    -0.19700
C633        C  0.12161887  0.52114879  0.45028673     0.21000
C634        C  0.11073459  0.50344686  0.47796394    -0.02600
C635        C  0.12634115  0.50302116  0.50147951    -0.05600
C636        C  0.15278864  0.52049840  0.49751146     0.21300
C637        C  0.11541270  0.48534192  0.52914336     0.19400
C638        C  0.08907015  0.46820635  0.53300269    -0.17100
C639        C  0.07360138  0.46872736  0.50982186    -0.19400
C640        C  0.08421209  0.48634985  0.48233783     0.20900
C641        C  0.06874192  0.48734506  0.45931546    -0.32400
C642        C  0.07946366  0.50493047  0.43182440     0.01600
C643        C  0.10589392  0.52154456  0.42719128    -0.23700
C644        C  0.16800099  0.52062035  0.52160993    -0.28300
C645        C  0.15717025  0.50341667  0.54960841     0.07300
C646        C  0.13091460  0.48539088  0.55273794    -0.26900
H647        H  0.18370396  0.55155598  0.46638833     0.12000
H648        H  0.15664439  0.55202000  0.42533578     0.13100
H649        H  0.08038756  0.45457181  0.55413914     0.12200
H650        H  0.05329537  0.45544274  0.51348518     0.11500
H651        H  0.04836097  0.47430864  0.46261047     0.16800
H652        H  0.11411306  0.53512046  0.40589130     0.12800
H653        H  0.18349122  0.52502553  0.01726966     0.15600
H654        H  0.12246730  0.47162996  0.57379228     0.15400
C655        C  0.08668265  0.58385193  0.13130333    -0.17500
C656        C  0.10416890  0.59992184  0.10635545    -0.19700
C657        C  0.11794068  0.62660842  0.10424275     0.21000
C658        C  0.11341505  0.63702873  0.12721332    -0.02600
C659        C  0.09646901  0.62077537  0.15289828    -0.05600
C660        C  0.08329095  0.59405182  0.15514429     0.21300
C661        C  0.09335711  0.63133003  0.17677717     0.19400
C662        C  0.10602673  0.65794091  0.17396065    -0.17100
C663        C  0.12238465  0.67401159  0.14829769    -0.19400
C664        C  0.12659550  0.66373889  0.12521683     0.20900
C665        C  0.14475384  0.67978867  0.10104683    -0.32400
C666        C  0.15082115  0.66971145  0.07932019     0.01600
C667        C  0.13685777  0.64305809  0.08045212    -0.23700
C668        C  0.06769534  0.57808957  0.18166021    -0.28300
C669        C  0.06589897  0.58857266  0.20649204     0.07300
C670        C  0.07833172  0.61520047  0.20349826    -0.26900
H671        H  0.07611522  0.56342708  0.13225823     0.12000
H672        H  0.10706160  0.59146903  0.08887752     0.13100
H673        H  0.10365351  0.66635238  0.19189284     0.12200
H674        H  0.13235745  0.69453673  0.14696201     0.11500
H675        H  0.15552375  0.70032066  0.10025701     0.16800
H676        H  0.14167197  0.63515352  0.06403106     0.12800
H677        H  0.05804315  0.55752883  0.18359520     0.15600
H678        H  0.07669623  0.62339376  0.22221135     0.15400
C679        C  0.16237946  0.65345850  0.44262297    -0.17500
C680        C  0.14622526  0.63608867  0.42396274    -0.19700
C681        C  0.11989106  0.62334417  0.42874789     0.21000
C682        C  0.10972100  0.62820945  0.45256313    -0.02600
C683        C  0.12609245  0.64612338  0.47110638    -0.05600
C684        C  0.15249281  0.65853858  0.46626591     0.21300
C685        C  0.11607010  0.65148985  0.49454223     0.19400
C686        C  0.08971184  0.63867544  0.49936535    -0.17100
C687        C  0.07346217  0.62058893  0.48133548    -0.19400
C688        C  0.08324399  0.61519396  0.45783429     0.20900
C689        C  0.06711900  0.59720006  0.43936736    -0.32400
C690        C  0.07720982  0.59274965  0.41508798     0.01600
C691        C  0.10360575  0.60593504  0.41000694    -0.23700
C692        C  0.16857349  0.67528004  0.48564746    -0.28300
C693        C  0.15886606  0.68040624  0.50960150     0.07300
C694        C  0.13255722  0.66917385  0.51304940    -0.26900
H695        H  0.18263933  0.66289798  0.43858693     0.12000
H696        H  0.15434316  0.63253846  0.40583555     0.13100
H697        H  0.08164254  0.64243792  0.51732276     0.12200
H698        H  0.05320896  0.61088428  0.48570487     0.11500
H699        H  0.04677664  0.58710331  0.44338391     0.16800
H700        H  0.11146341  0.60232736  0.39163018     0.12800
H701        H  0.18871777  0.68354221  0.48280348     0.15600
H702        H  0.12486481  0.67362939  0.53061895     0.15400
C703        C  0.81973373  0.27730627  0.49609281    -0.17500
C704        C  0.80429448  0.26508933  0.47304810    -0.19700
C705        C  0.77888012  0.25765414  0.47353646     0.21000
C706        C  0.76263725  0.26119414  0.00437369    -0.02600
C707        C  0.77783863  0.27337164  0.02790798    -0.05600
C708        C  0.80320726  0.28012088  0.02824475     0.21300
C709        C  0.76767843  0.27880636  0.05104297     0.19400
C710        C  0.74246795  0.27202112  0.05050790    -0.17100
C711        C  0.72748057  0.26021578  0.02694926    -0.19400
C712        C  0.73738678  0.25478770  0.00367893     0.20900
C713        C  0.72279567  0.24363990  0.97934341    -0.32400
C714        C  0.73782169  0.23791763  0.45124807     0.01600
C715        C  0.76329401  0.24542789  0.45057779    -0.23700
C716        C  0.81820205  0.29217112  0.05174467    -0.28300
C717        C  0.80804822  0.29733745  0.07496187     0.07300
C718        C  0.78284316  0.29067059  0.07446795    -0.26900
H719        H  0.83921379  0.28263790  0.49534494     0.12000
H720        H  0.81220855  0.26134736  0.45489751     0.13100
H721        H  0.73438398  0.27599005  0.06822411     0.12200
H722        H  0.70817960  0.25544068  0.02685514     0.11500
H723        H  0.70371589  0.23945479  0.97803178     0.16800
H724        H  0.77097600  0.24181610  0.43202119     0.12800
H725        H  0.84442883  0.29857414  0.54427598     0.15600
H726        H  0.77496675  0.29439786  0.09270292     0.15400
C727        C  0.54498631  0.31808664  0.44037954    -0.17500
C728        C  0.55904741  0.30710604  0.43893547    -0.19700
C729        C  0.54728871  0.28201848  0.43328318     0.21000
C730        C  0.52113974  0.26793690  0.42882956    -0.02600
C731        C  0.50710599  0.27928683  0.42938414    -0.05600
C732        C  0.51901946  0.30433228  0.43567792     0.21300
C733        C  0.48088158  0.26504148  0.42540840     0.19400
C734        C  0.46895839  0.23965722  0.42083632    -0.17100
C735        C  0.48281618  0.22835698  0.42053104    -0.19400
C736        C  0.50887448  0.24230551  0.42453715     0.20900
C737        C  0.52289597  0.23113410  0.42397690    -0.32400
C738        C  0.54914811  0.24540791  0.42689288     0.01600
C739        C  0.56118470  0.27077054  0.43188908    -0.23700
C740        C  0.50437520  0.31432044  0.43977373    -0.28300
C741        C  0.47805081  0.29981210  0.43718919     0.07300
C742        C  0.46667630  0.27567413  0.42856609    -0.26900
H743        H  0.55435547  0.33722131  0.44560994     0.12000
H744        H  0.57905020  0.31810131  0.44271047     0.13100
H745        H  0.44877683  0.22833067  0.41820894     0.12200
H746        H  0.47311124  0.20863440  0.41732169     0.11500
H747        H  0.51356977  0.21172831  0.41965397     0.16800
H748        H  0.58143358  0.28184645  0.43420306     0.12800
H749        H  0.51301989  0.33218362  0.44832211     0.15600
H750        H  0.44625380  0.26397778  0.42796368     0.15400
C751        C  0.59678073  0.13537665  0.00438312    -0.17500
C752        C  0.61257877  0.15268175  0.97880597    -0.19700
C753        C  0.63853358  0.16222974  0.97773374     0.21000
C754        C  0.64870120  0.15437377  0.00278435    -0.02600
C755        C  0.63276047  0.13691860  0.02862056    -0.05600
C756        C  0.60665580  0.12725139  0.02927408     0.21300
C757        C  0.64296888  0.12927488  0.05383297     0.19400
C758        C  0.66901691  0.13926665  0.05303255    -0.17100
C759        C  0.68479442  0.15648188  0.02737441    -0.19400
C760        C  0.67480476  0.16405392  0.00210062     0.20900
C761        C  0.69048070  0.18129543  0.97627883    -0.32400
C762        C  0.68060413  0.18962325  0.95144525     0.01600
C763        C  0.65455506  0.17982075  0.95229941    -0.23700
C764        C  0.59090474  0.10973054  0.05485699    -0.28300
C765        C  0.60091674  0.10197485  0.08005423     0.07300
C766        C  0.62699041  0.11192960  0.07944973    -0.26900
H767        H  0.57681159  0.12831607  0.00467764     0.12000
H768        H  0.60449167  0.15862413  0.95986067     0.13100
H769        H  0.67719183  0.13374305  0.07225174     0.12200
H770        H  0.70484396  0.16393326  0.02733011     0.11500
H771        H  0.71043295  0.18834663  0.97553293     0.16800
H772        H  0.64841307  0.18568558  0.43597909     0.12800
H773        H  0.57088351  0.10252329  0.05544357     0.15600
H774        H  0.63479352  0.10608757  0.09885776     0.15400
C775        C  0.61524114  0.16067845  0.30086315    -0.17500
C776        C  0.62830078  0.17722634  0.32167613    -0.19700
C777        C  0.64092018  0.17126337  0.34493610     0.21000
C778        C  0.63939367  0.14786337  0.34821172    -0.02600
C779        C  0.62617041  0.13114184  0.32726920    -0.05600
C780        C  0.61453429  0.13788219  0.30308946     0.21300
C781        C  0.62480190  0.10780715  0.33035849     0.19400
C782        C  0.63660583  0.10142833  0.35435301    -0.17100
C783        C  0.65010654  0.11822783  0.37479103    -0.19400
C784        C  0.65183133  0.14158256  0.37174264     0.20900
C785        C  0.66696177  0.15940703  0.39061409    -0.32400
C786        C  0.67011787  0.18348959  0.38569807     0.01600
C787        C  0.65624479  0.18890236  0.36381517    -0.23700
C788        C  0.60215258  0.12153129  0.28181628    -0.28300
C789        C  0.60047515  0.09816913  0.28510954     0.07300
C790        C  0.61159166  0.09125231  0.30946012    -0.26900
H791        H  0.60587013  0.16580260  0.28287384     0.12000
H792        H  0.62900371  0.19495306  0.31916699     0.13100
H793        H  0.63568432  0.08358154  0.35706619     0.12200
H794        H  0.65953285  0.11312219  0.39271410     0.11500
H795        H  0.67798262  0.15546588  0.40726261     0.16800
H796        H  0.65890255  0.20762413  0.36002581     0.12800
H797        H  0.59295879  0.12645784  0.26333762     0.15600
H798        H  0.61000459  0.07307206  0.31198496     0.15400
C799        C  0.53369610  0.18436830  0.03309640    -0.17500
C800        C  0.53134195  0.16824616  0.06044477    -0.19700
C801        C  0.51914450  0.14179488  0.06140433     0.21000
C802        C  0.50793131  0.13132207  0.03503791    -0.02600
C803        C  0.51003790  0.14756026  0.00756227    -0.05600
C804        C  0.52365900  0.17427162  0.00634819     0.21300
C805        C  0.49969286  0.13717718  0.98089473     0.19400
C806        C  0.48637023  0.11059873  0.98225739    -0.17100
C807        C  0.48443247  0.09453275  0.00939798    -0.19400
C808        C  0.49573605  0.10478321  0.03562865     0.20900
C809        C  0.49612719  0.08915505  0.06189394    -0.32400
C810        C  0.50843493  0.09966945  0.08765739     0.01600
C811        C  0.51904365  0.12582543  0.08770688    -0.23700
C812        C  0.52837147  0.19045607  0.97803859    -0.28300
C813        C  0.54098586  0.19073880  0.45029642     0.07300
C814        C  0.52651782  0.16440294  0.44886689    -0.26900
H815        H  0.54402451  0.20481903  0.03264007     0.12000
H816        H  0.53984420  0.17658090  0.08055304     0.13100
H817        H  0.50307114  0.11352502  0.45212807     0.12200
H818        H  0.47476909  0.07416419  0.00958516     0.11500
H819        H  0.48750434  0.06891203  0.06198091     0.16800
H820        H  0.52848908  0.13401806  0.10756186     0.12800
H821        H  0.54051578  0.21100059  0.97668736     0.15600
H822        H  0.52199809  0.15829322  0.42685030     0.15400
C823        C  0.57684621  0.13776558  0.37974041    -0.17500
C824        C  0.56997927  0.11921100  0.36136164    -0.19700
C825        C  0.55361578  0.11625180  0.33761733     0.21000
C826        C  0.54364895  0.13175678  0.33290173    -0.02600
C827        C  0.54969852  0.14966596  0.35223390    -0.05600
C828        C  0.56677496  0.15308122  0.37541827     0.21300
C829        C  0.53888601  0.16441684  0.34801541     0.19400
C830        C  0.52269602  0.16165240  0.32429228    -0.17100
C831        C  0.51741497  0.14458029  0.30454949    -0.19400
C832        C  0.52773164  0.12954146  0.30867928     0.20900
C833        C  0.52246760  0.11247614  0.28879492    -0.32400
C834        C  0.53211407  0.09682938  0.29323749     0.01600
C835        C  0.54729460  0.09841830  0.31815759    -0.23700
C836        C  0.57360967  0.17195768  0.39345309    -0.28300
C837        C  0.56259313  0.18640696  0.38927821     0.07300
C838        C  0.54494850  0.18220217  0.36704026    -0.26900
H839        H  0.58997176  0.14008072  0.39737539     0.12000
H840        H  0.57788161  0.10752681  0.36531672     0.13100
H841        H  0.51442590  0.17301030  0.32069303     0.12200
H842        H  0.50516098  0.14306705  0.28608010     0.11500
H843        H  0.51060417  0.11118428  0.26990773     0.16800
H844        H  0.55490400  0.08645529  0.32172156     0.12800
H845        H  0.58747203  0.17553514  0.41045153     0.15600
H846        H  0.53680240  0.19370533  0.36371119     0.15400
C847        C  0.22306518  0.80898496  0.43715750    -0.17500
C848        C  0.20701243  0.78280787  0.44873150    -0.19700
C849        C  0.21711701  0.76842334  0.46120340     0.21000
C850        C  0.24357339  0.77983649  0.45870158    -0.02600
C851        C  0.25975830  0.80633562  0.44763419    -0.05600
C852        C  0.24938908  0.82115346  0.43838092     0.21300
C853        C  0.28618942  0.81839062  0.44919114     0.19400
C854        C  0.30082399  0.80321963  0.96230387    -0.17100
C855        C  0.28545188  0.77679750  0.97274497    -0.19400
C856        C  0.25398372  0.76551168  0.47067307     0.20900
C857        C  0.23827298  0.74104320  0.48808621    -0.32400
C858        C  0.21269482  0.73144170  0.49499419     0.01600
C859        C  0.20170057  0.74405249  0.47930968    -0.23700
C860        C  0.26519330  0.84792329  0.43396104    -0.28300
C861        C  0.29090768  0.85990403  0.44025577     0.07300
C862        C  0.30166486  0.84518281  0.44533351    -0.26900
H863        H  0.21482712  0.82003654  0.42946215     0.12000
H864        H  0.18674421  0.77423507  0.44978463     0.13100
H865        H  0.32103029  0.81295636  0.96469188     0.12200
H866        H  0.29414702  0.76672461  0.98297237     0.11500
H867        H  0.25185522  0.72994682  0.00249677     0.16800
H868        H  0.18194335  0.73661676  0.48448871     0.12800
H869        H  0.25691682  0.85924086  0.42910744     0.15600
H870        H  0.32395891  0.85387437  0.95283621     0.15400
C871        C  0.43931761  0.99009327  0.01321747    -0.17500
C872        C  0.42112439  0.97950737  0.99165833    -0.19700
C873        C  0.39607244  0.95957379  0.00131281     0.21000
C874        C  0.38943836  0.95042829  0.03311363    -0.02600
C875        C  0.40764370  0.96140941  0.05484272    -0.05600
C876        C  0.43275723  0.98121459  0.04489396     0.21300
C877        C  0.40066287  0.95241751  0.08655940     0.19400
C878        C  0.37567925  0.93258947  0.09627919    -0.17100
C879        C  0.35783045  0.92147413  0.07485023    -0.19400
C880        C  0.36456902  0.93018622  0.04332747     0.20900
C881        C  0.34672426  0.91888879  0.02195917    -0.32400
C882        C  0.35278025  0.92792098  0.99026144     0.01600
C883        C  0.37750249  0.94858228  0.97997298    -0.23700
C884        C  0.45076719  0.99173756  0.06680932    -0.28300
C885        C  0.44391210  0.98292803  0.09864208     0.07300
C886        C  0.41871178  0.96325229  0.10811695    -0.26900
H887        H  0.45852885  0.00531002  0.00509975     0.12000
H888        H  0.42670347  0.98679113  0.96742642     0.13100
H889        H  0.36997382  0.92551057  0.12050418     0.12200
H890        H  0.33869557  0.90603152  0.08295855     0.11500
H891        H  0.32776182  0.90298595  0.03010918     0.16800
H892        H  0.38221371  0.95605672  0.95563306     0.12800
H893        H  0.47007270  0.00692062  0.05901656     0.15600
H894        H  0.41307315  0.95620213  0.13237188     0.15400
C895        C  0.41884574  0.94221465  0.41651015    -0.17500
C896        C  0.43766540  0.95580379  0.39241537    -0.19700
C897        C  0.43119330  0.95592006  0.36172095     0.21000
C898        C  0.40542053  0.94200834  0.35533065    -0.02600
C899        C  0.38641127  0.92875274  0.37967191    -0.05600
C900        C  0.39314421  0.92886242  0.41040623     0.21300
C901        C  0.36068779  0.91599592  0.37322974     0.19400
C902        C  0.35409568  0.91549180  0.34262024    -0.17100
C903        C  0.37287986  0.92815988  0.31854780    -0.19400
C904        C  0.39860267  0.94180251  0.32465008     0.20900
C905        C  0.41757813  0.95549478  0.30061334    -0.32400
C906        C  0.44348234  0.96981229  0.30661107     0.01600
C907        C  0.45001541  0.96984987  0.33739085    -0.23700
C908        C  0.37411221  0.91664305  0.43442308    -0.28300
C909        C  0.34859105  0.90646518  0.42814909     0.07300
C910        C  0.34206317  0.90522206  0.39736256    -0.26900
H911        H  0.42440125  0.94273107  0.43995736     0.12000
H912        H  0.45732861  0.96636324  0.39781324     0.13100
H913        H  0.33440004  0.90565813  0.33727569     0.12200
H914        H  0.36727161  0.92770033  0.29512229     0.11500
H915        H  0.41204421  0.95521729  0.27714355     0.16800
H916        H  0.46975153  0.98064431  0.34246320     0.12800
H917        H  0.37934351  0.91599273  0.45789591     0.15600
H918        H  0.32255577  0.89727584  0.39189107     0.15400
C919        C  0.49984450  0.74400393  0.43894759    -0.17500
C920        C  0.49473404  0.76144218  0.44675687    -0.19700
C921        C  0.51409014  0.78736937  0.44469671     0.21000
C922        C  0.53883453  0.79590151  0.43456501    -0.02600
C923        C  0.54404398  0.77823772  0.42699437    -0.05600
C924        C  0.52443911  0.75214499  0.42908164     0.21300
C925        C  0.56877855  0.78678268  0.41683945     0.19400
C926        C  0.58808494  0.81277173  0.41448476    -0.17100
C927        C  0.58298410  0.83020712  0.42229842    -0.19400
C928        C  0.55844591  0.82199596  0.43243796     0.20900
C929        C  0.55340420  0.83909792  0.44188307    -0.32400
C930        C  0.52911592  0.83024010  0.45382937     0.01600
C931        C  0.50938268  0.80464670  0.45399542    -0.23700
C932        C  0.52954845  0.73497329  0.41986613    -0.28300
C933        C  0.55393082  0.74373012  0.40824417     0.07300
C934        C  0.57355627  0.76944729  0.40784375    -0.26900
H935        H  0.48451847  0.72414407  0.44052506     0.12000
H936        H  0.46832153  0.74681335  0.95465195     0.13100
H937        H  0.60715362  0.81964453  0.40647900     0.12200
H938        H  0.59827503  0.85010152  0.42055874     0.11500
H939        H  0.56874316  0.85867054  0.44240437     0.16800
H940        H  0.48237443  0.78947529  0.96608153     0.12800
H941        H  0.51421539  0.71539874  0.41937467     0.15600
H942        H  0.59226459  0.77635735  0.39833890     0.15400
C943        C  0.50576398  0.93442878  0.01105809    -0.17500
C944        C  0.50837966  0.95277230  0.02747888    -0.19700
C945        C  0.52488230  0.96001757  0.05136495     0.21000
C946        C  0.53969168  0.94944835  0.05782414    -0.02600
C947        C  0.53762608  0.93152983  0.04060885    -0.05600
C948        C  0.52007370  0.92344547  0.01764107     0.21300
C949        C  0.55228814  0.92083749  0.04737402     0.19400
C950        C  0.56913299  0.92839969  0.07085158    -0.17100
C951        C  0.57071019  0.94562323  0.08834316    -0.19400
C952        C  0.55580659  0.95594651  0.08232043     0.20900
C953        C  0.55601057  0.97180887  0.10115707    -0.32400
C954        C  0.54066749  0.98173580  0.09563648     0.01600
C955        C  0.52590856  0.97659223  0.06988089    -0.23700
C956        C  0.51634763  0.90373227  0.00274785    -0.28300
C957        C  0.53036527  0.89247773  0.01015243     0.07300
C958        C  0.54883248  0.90172373  0.03176562    -0.26900
H959        H  0.49225861  0.92855839  0.99347888     0.12000
H960        H  0.49686602  0.96068162  0.02213935     0.13100
H961        H  0.58052987  0.92037177  0.07633500     0.12200
H962        H  0.58327490  0.95052137  0.10696174     0.11500
H963        H  0.56763021  0.97587105  0.12071041     0.16800
H964        H  0.51395749  0.98408663  0.06546125     0.12800
H965        H  0.50169353  0.89621888  0.98666796     0.15600
H966        H  0.55928588  0.89269782  0.03794044     0.15400
C967        C  0.57040648  0.97157674  0.38066621    -0.17500
C968        C  0.57088688  0.95570886  0.40655628    -0.19700
C969        C  0.55628491  0.92899256  0.40874018     0.21000
C970        C  0.54155373  0.91822428  0.38425832    -0.02600
C971        C  0.54162665  0.93426982  0.35773695    -0.05600
C972        C  0.55575948  0.96105390  0.35616996     0.21300
C973        C  0.52711473  0.92345076  0.33309763     0.19400
C974        C  0.51259279  0.89675600  0.33527221    -0.17100
C975        C  0.51199996  0.88087349  0.36185426    -0.19400
C976        C  0.52626236  0.89140096  0.38655460     0.20900
C977        C  0.52468687  0.87556663  0.41393274    -0.32400
C978        C  0.53868372  0.88607172  0.43894517     0.01600
C979        C  0.55544474  0.91286106  0.43539984    -0.23700
C980        C  0.55468035  0.97674661  0.33034951    -0.28300
C981        C  0.54030730  0.96606492  0.30562907     0.07300
C982        C  0.52694151  0.93944358  0.30700119    -0.26900
H983        H  0.58142774  0.99209231  0.37985793     0.12000
H984        H  0.58221252  0.96431387  0.42521180     0.13100
H985        H  0.50130038  0.88812331  0.31661428     0.12200
H986        H  0.50019613  0.86031387  0.36319330     0.11500
H987        H  0.51155670  0.85507267  0.41626037     0.16800
H988        H  0.56722114  0.92128501  0.45378091     0.12800
H989        H  0.56506182  0.99727529  0.32940513     0.15600
H990        H  0.51558940  0.93109997  0.28822518     0.15400
N991        N  0.52533952  0.86222834  0.97400842    -0.03100
C992        C  0.51604063  0.83646334  0.97980369    -0.00600
C993        C  0.51878674  0.83435372  0.50502631    -0.23400
C994        C  0.52236401  0.85354738  0.51908619    -0.23600
C995        C  0.53137538  0.87496404  0.49654811    -0.00700
H996        H  0.51306232  0.81528135  0.51632642     0.13100
H997        H  0.51950340  0.85231442  0.54342230     0.13200
N998        N  0.32980124  0.89972411  0.95076439    -0.03100
C999        C  0.30456367  0.88347691  0.94811157    -0.00600
C1000       C  0.29193977  0.89290404  0.46587097    -0.23400
C1001       C  0.31003697  0.91223843  0.47988507    -0.23600
C1002       C  0.33197263  0.91581786  0.96939717    -0.00700
H1003       H  0.27173577  0.88321936  0.47048645     0.13100
H1004       H  0.30644643  0.92016432  0.49740683     0.13200
O1005       O  0.45774646  0.97754566  0.75602302    -0.75000
O1006       O  0.48849266  0.99717301  0.78877437    -0.53900
C1007       C  0.46535218  0.98138220  0.78310801     0.78800
O1008       O  0.54263705  0.98615610  0.64863620    -0.59600
O1009       O  0.53280186  0.00877766  0.61163992    -0.52600
C1010       C  0.53949018  0.99295194  0.62054438     0.70800
O1011       O  0.53692979  0.97265187  0.75354585    -0.74100
O1012       O  0.53559299  0.99615980  0.78636999    -0.54700
C1013       C  0.53708749  0.97765446  0.78075964     0.76800
O1014       O  0.45564998  0.98455845  0.65283437    -0.59300
O1015       O  0.48650377  0.00826375  0.61409190    -0.52400
C1016       C  0.46344806  0.99166980  0.62417864     0.73400
Zr1017     Zr  0.47398366  0.99351399  0.70261871     2.54700
O1018       O  0.44676361  0.94707825  0.70927740    -0.79800
O1019       O  0.43813943  0.99745869  0.70920058    -0.93200
Zr1020     Zr  0.53652633  0.99206002  0.70013685     2.64700
O1021       O  0.50904862  0.94658142  0.69856835    -0.98200
O1022       O  0.57404840  0.99011027  0.70050949    -0.80300
O1023       O  0.50500906  0.98970355  0.73081730    -0.83600
O1024       O  0.50452443  0.99412373  0.67219364    -2.18300
O1025       O  0.51482459  0.08710186  0.63871566    -0.67000
O1026       O  0.51777342  0.06449886  0.60586452    -0.51600
C1027       C  0.51572396  0.08266144  0.61139703     0.71800
O1028       O  0.59005461  0.08676261  0.73661263    -0.59900
O1029       O  0.56487393  0.05720255  0.77782339    -0.51900
C1030       C  0.58376423  0.07939854  0.76558871     0.73600
O1031       O  0.59393030  0.08593400  0.63597697    -0.71300
O1032       O  0.56245342  0.06496199  0.60448630    -0.50000
C1033       C  0.58526152  0.08226385  0.60917876     0.74900
O1034       O  0.51919053  0.08073300  0.74408542    -0.66600
O1035       O  0.52306923  0.05366685  0.78180143    -0.53800
C1036       C  0.52149084  0.07301335  0.77225303     0.73300
Zr1037     Zr  0.51578023  0.06908137  0.69284293     2.77500
O1038       O  0.54056914  0.11561577  0.68588720    -0.97400
O1039       O  0.47618322  0.06663373  0.69838690    -0.78200
Zr1040     Zr  0.57822193  0.06773089  0.69011705     2.70100
O1041       O  0.61177707  0.11283288  0.68465039    -0.79500
O1042       O  0.61087896  0.05815806  0.69456010    -0.98500
Zr1043     Zr  0.52712528  0.02605106  0.75524047     2.21500
Zr1044     Zr  0.52505886  0.03439208  0.63820938     2.11100
O1045       O  0.54702062  0.07106613  0.66218979    -2.47200
O1046       O  0.54692600  0.06563010  0.72033627    -0.79300
O1047       O  0.49344923  0.03311835  0.66781230    -0.71400
O1048       O  0.55908372  0.02811607  0.72527346    -2.32400
O1049       O  0.49539877  0.02937430  0.72765109    -2.28600
O1050       O  0.55716991  0.03177576  0.66526573    -0.73200
H1051       H  0.49615990  0.98019116  0.66082448     0.78800
H1052       H  0.57140215  0.02725404  0.73816290     0.79900
H1053       H  0.55506027  0.08681621  0.64740370     0.82100
H1054       H  0.48370513  0.02885422  0.74168923     0.79700
H1055       H  0.58311910  0.99797035  0.71823362     0.42700
H1056       H  0.62525512  0.07262471  0.68088382     0.41700
H1057       H  0.60329311  0.12195232  0.67736202     0.41400
H1058       H  0.53189532  0.11985306  0.69961818     0.39300
H1059       H  0.46784115  0.05488552  0.71806378     0.42500
H1060       H  0.42357128  0.98231916  0.70221876     0.37200
H1061       H  0.42947228  0.94318128  0.71267413     0.43400
H1062       H  0.52065755  0.94054667  0.69915814     0.39800
H1063       H  0.55658791  0.12003153  0.69549274     0.44700
H1064       H  0.44145481  0.01214850  0.69334891     0.43400
H1065       H  0.49944332  0.93885136  0.71878126     0.43600
H1066       H  0.61658050  0.06058118  0.71554565     0.43900
N1067       N  0.53101813  0.19673447  0.92155742    -0.03100
C1068       C  0.53781542  0.22143369  0.91403501    -0.00600
C1069       C  0.55799996  0.23495104  0.89228789    -0.23400
C1070       C  0.56356074  0.21796460  0.88581205    -0.23600
C1071       C  0.54658318  0.19463445  0.90369251    -0.00700
H1072       H  0.56635259  0.25445663  0.88043405     0.13100
H1073       H  0.57650418  0.22151467  0.86739985     0.13200
N1074       N  0.69717363  0.20887955  0.92599713    -0.03100
C1075       C  0.71993353  0.23074307  0.92784285    -0.00600
C1076       C  0.73027208  0.24483414  0.89896810    -0.23400
C1077       C  0.71335321  0.23151459  0.87852370    -0.23600
C1078       C  0.69318742  0.20950083  0.89545556    -0.00700
H1079       H  0.74835659  0.26278169  0.89338201     0.13100
H1080       H  0.71599740  0.23683960  0.85377743     0.13200
O1081       O  0.06249731  0.50023270  0.88539343    -0.75000
O1082       O  0.03866500  0.50295047  0.92029441    -0.53900
C1083       C  0.05684282  0.50075439  0.91276085     0.78800
O1084       O  0.05863063  0.58184919  0.76540878    -0.59600
O1085       O  0.03627280  0.54989650  0.73773642    -0.52600
C1086       C  0.05281757  0.57328188  0.73990778     0.70800
O1087       O  0.06661350  0.57798339  0.86749460    -0.74100
O1088       O  0.03962736  0.55058724  0.90879567    -0.54700
C1089       C  0.05986315  0.57143411  0.89628998     0.76800
O1090       O  0.05621482  0.49348134  0.78373094    -0.59300
O1091       O  0.03511058  0.50347560  0.74711816    -0.52400
C1092       C  0.05068131  0.49685381  0.75561596     0.73400
Zr1093     Zr  0.04667497  0.49940003  0.83424120     2.54700
O1094       O  0.09261499  0.52601763  0.82669785    -0.79800
O1095       O  0.04665954  0.46042814  0.84866708    -0.93200
Zr1096     Zr  0.04767514  0.56373787  0.82024370     2.64700
O1097       O  0.09368656  0.58978536  0.81181835    -0.98200
O1098       O  0.04597646  0.60150150  0.81850664    -0.80300
O1099       O  0.04738669  0.53138608  0.85652142    -0.83600
O1100       O  0.04755346  0.53211305  0.79809043    -2.18300
O1101       O  0.95893017  0.44203852  0.79372617    -0.67000
O1102       O  0.97980308  0.47409836  0.75254762    -0.51600
C1103       C  0.96369345  0.45068661  0.76450287     0.71800
O1104       O  0.95986485  0.52596196  0.87831506    -0.59900
O1105       O  0.98179226  0.51873011  0.91628574    -0.51900
C1106       C  0.96521305  0.52386054  0.90662476     0.73600
O1107       O  0.95801111  0.52541415  0.77590818    -0.71300
O1108       O  0.98230225  0.52165956  0.74300428    -0.50000
C1109       C  0.96471726  0.52502954  0.74894385     0.74900
O1110       O  0.95564780  0.44430449  0.89642121    -0.66600
O1111       O  0.98119928  0.47347223  0.92648950    -0.53800
C1112       C  0.96186801  0.45169337  0.92259423     0.73300
Zr1113     Zr  0.97185827  0.45867334  0.84246155     2.77500
O1114       O  0.92619737  0.42823996  0.84768071    -0.97400
O1115       O  0.97880996  0.42402107  0.85612211    -0.78200
Zr1116     Zr  0.97222382  0.52303014  0.82812396     2.70100
O1117       O  0.92619370  0.49669099  0.83201409    -0.79500
O1118       O  0.97310913  0.56257464  0.82031509    -0.98500
Zr1119     Zr  0.01013555  0.51135351  0.88981318     2.21500
Zr1120     Zr  0.00863445  0.51159322  0.77419704     2.11100
O1121       O  0.97087697  0.49049245  0.80653484    -2.47200
O1122       O  0.97196365  0.49062698  0.86423857    -0.79300
O1123       O  0.00861806  0.47844791  0.80897811    -0.71400
O1124       O  0.01052623  0.54413821  0.85341129    -2.32400
O1125       O  0.00978306  0.47884254  0.86822855    -2.28600
O1126       O  0.00943337  0.54430753  0.79488650    -0.73200
H1127       H  0.06186403  0.53994774  0.78341526     0.78800
H1128       H  0.01109072  0.55675403  0.86368438     0.79900
H1129       H  0.95603798  0.48250087  0.79496165     0.82100
H1130       H  0.00988116  0.46643347  0.88424528     0.79700
H1131       H  0.05357857  0.60818477  0.83743067     0.42700
H1132       H  0.95760934  0.55812105  0.83171975     0.41700
H1133       H  0.92101405  0.50848321  0.82278985     0.41400
H1134       H  0.91936472  0.43676306  0.83366366     0.39300
H1135       H  0.96245625  0.40931703  0.86615866     0.42500
H1136       H  0.06257655  0.46577427  0.85900681     0.37200
H1137       H  0.09742485  0.54164608  0.83476004     0.43400
H1138       H  0.09751989  0.58589678  0.79277345     0.39800
H1139       H  0.92313188  0.41386766  0.83802182     0.44700
H1140       H  0.04937466  0.45638714  0.82910103     0.43400
H1141       H  0.09805805  0.60760713  0.80619234     0.43600
H1142       H  0.98713260  0.57381583  0.83233061     0.43900
N1143       N  0.17262989  0.50563276  0.57540526    -0.03100
C1144       C  0.19716034  0.51229586  0.57439244    -0.00600
C1145       C  0.20693248  0.51653580  0.60279081    -0.23400
C1146       C  0.18795984  0.51191064  0.62215223    -0.23600
C1147       C  0.16707242  0.50504171  0.60515339    -0.00700
H1148       H  0.22552122  0.52115845  0.60920056     0.13100
H1149       H  0.18904671  0.51285365  0.64638121     0.13200
N1150       N  0.85097938  0.32619266  0.59945199    -0.03100
C1151       C  0.82817671  0.30465452  0.59664766    -0.00600
C1152       C  0.81757086  0.28965060  0.62508222    -0.23400
C1153       C  0.83412376  0.30222338  0.64619282    -0.23600
C1154       C  0.85440901  0.32468997  0.63010504    -0.00700
H1155       H  0.79944432  0.27165903  0.62997566     0.13100
H1156       H  0.83109169  0.29609935  0.67083714     0.13200
N1157       N  0.86741043  0.55194651  0.05058838    -0.03100
C1158       C  0.85414686  0.56351716  0.04564285    -0.00600
C1159       C  0.85707294  0.57512820  0.56321515    -0.23400
C1160       C  0.87188158  0.57206338  0.58425456    -0.23600
C1161       C  0.87786252  0.55639682  0.57415894    -0.00700
H1162       H  0.84749302  0.58477255  0.56549066     0.13100
H1163       H  0.87659825  0.57923233  0.60567679     0.13200
N1164       N  0.17922783  0.69184474  0.02930826    -0.03100
C1165       C  0.20417011  0.71101244  0.02337487    -0.00600
C1166       C  0.21299327  0.72064629  0.55156583    -0.23400
C1167       C  0.19524577  0.70562094  0.57532267    -0.23600
C1168       C  0.17256891  0.69045903  0.56263371    -0.00700
H1169       H  0.23239474  0.73584678  0.55352211     0.13100
H1170       H  0.19835839  0.70627515  0.59944321     0.13200
O1171       O  0.56840583  0.52366210  0.62211466    -0.75000
O1172       O  0.54277500  0.52400338  0.58444119    -0.53900
C1173       C  0.56282666  0.52471761  0.59377827     0.78800
O1174       O  0.47816065  0.44089419  0.73418539    -0.59600
O1175       O  0.48852694  0.47067441  0.76431315    -0.52600
C1176       C  0.48177390  0.44813280  0.76067196     0.70800
O1177       O  0.47266354  0.44488379  0.62938630    -0.74100
O1178       O  0.48915373  0.47837270  0.58911334    -0.54700
C1179       C  0.47739652  0.45437508  0.60043364     0.76800
O1180       O  0.56619338  0.52304786  0.72437326    -0.59300
O1181       O  0.53570241  0.51527412  0.75877750    -0.52400
C1182       C  0.55768232  0.52005897  0.75188211     0.73400
Zr1183     Zr  0.55169808  0.52229790  0.67199599     2.54700
O1184       O  0.56929232  0.49592063  0.68197891    -0.79800
O1185       O  0.59202319  0.56326894  0.66686153    -0.93200
Zr1186     Zr  0.48210361  0.45974206  0.67893466     2.64700
O1187       O  0.50413426  0.43783255  0.67875386    -0.98200
O1188       O  0.44105167  0.41935376  0.68624628    -0.80300
O1189       O  0.51785360  0.49236260  0.64574763    -0.83600
O1190       O  0.51619497  0.48945904  0.70450400    -2.18300
O1191       O  0.52545282  0.57951319  0.71119449    -0.67000
O1192       O  0.51387183  0.54684415  0.75168939    -0.51600
C1193       C  0.52136374  0.57005425  0.74009428     0.71800
O1194       O  0.43986099  0.50382550  0.61734068    -0.59900
O1195       O  0.46958504  0.51149980  0.58170927    -0.51900
C1196       C  0.44775218  0.50687238  0.58951753     0.73600
O1197       O  0.43762523  0.50162068  0.72030487    -0.71300
O1198       O  0.46314945  0.49958524  0.75701807    -0.50000
C1199       C  0.44353137  0.49971400  0.74843617     0.74900
O1200       O  0.53007569  0.58615961  0.60781905    -0.66600
O1201       O  0.51790387  0.55627450  0.57727137    -0.53800
C1202       C  0.52596064  0.57911777  0.58135587     0.73300
Zr1203     Zr  0.52412174  0.56593372  0.66214183     2.77500
O1204       O  0.51235773  0.59733125  0.65524916    -0.97400
O1205       O  0.56895372  0.59900961  0.66117456    -0.78200
Zr1206     Zr  0.45385497  0.50320330  0.66967889     2.70100
O1207       O  0.43264784  0.52620444  0.66431256    -0.79500
O1208       O  0.41371691  0.46191276  0.67642305    -0.98500
Zr1209     Zr  0.50496858  0.51625376  0.61143326     2.21500
Zr1210     Zr  0.50064356  0.50958645  0.72893481     2.11100
O1211       O  0.48787858  0.53358080  0.69472442    -2.47200
O1212       O  0.48952681  0.53629833  0.63664545    -0.79300
O1213       O  0.53703494  0.54275658  0.69707422    -0.71400
O1214       O  0.46890922  0.48318167  0.64458447    -2.32400
O1215       O  0.53966583  0.54628057  0.63684571    -2.28600
O1216       O  0.46584109  0.47891857  0.70423189    -0.73200
H1217       H  0.52180468  0.48065003  0.71920419     0.78800
H1218       H  0.45553288  0.47196409  0.63275129     0.79900
H1219       H  0.48182798  0.54145358  0.70572225     0.82100
H1220       H  0.55366260  0.55897711  0.62233638     0.79700
H1221       H  0.44439677  0.40687459  0.68057234     0.42700
H1222       H  0.40170521  0.46548033  0.66548422     0.41700
H1223       H  0.44432806  0.54205661  0.67252959     0.41400
H1224       H  0.50146052  0.59354281  0.63766481     0.39300
H1225       H  0.56980818  0.61529125  0.65530871     0.42500
H1226       H  0.59790258  0.56747835  0.64499823     0.37200
H1227       H  0.55890755  0.48169674  0.67059378     0.43400
H1228       H  0.49949129  0.42658592  0.69907563     0.39800
H1229       H  0.50056743  0.59221268  0.67309957     0.44700
H1230       H  0.60370989  0.55936531  0.67809822     0.43400
H1231       H  0.49543348  0.42588660  0.66412335     0.43600
H1232       H  0.41596807  0.45169339  0.66376183     0.43900
N1233       N  0.44936510  0.32275272  0.95192623    -0.03100
C1234       C  0.44175735  0.29778874  0.95473090    -0.00600
C1235       C  0.42390431  0.28294157  0.97901011    -0.23400
C1236       C  0.42068990  0.29918916  0.99207113    -0.23600
C1237       C  0.43673667  0.32347547  0.97550496    -0.00700
H1238       H  0.41623572  0.26300907  0.98840889     0.13100
H1239       H  0.43936065  0.29514197  0.52454446     0.13200
N1240       N  0.33150342  0.50214357  0.93203896    -0.03100
C1241       C  0.33749194  0.50471358  0.90176312    -0.00600
C1242       C  0.31729343  0.50020651  0.88439142    -0.23400
C1243       C  0.29806596  0.49447231  0.90420440    -0.23600
C1244       C  0.30704671  0.49588757  0.93323809    -0.00700
H1245       H  0.31649672  0.50051999  0.85987802     0.13100
H1246       H  0.27963932  0.49047066  0.89793808     0.13200
N1247       N  0.67683129  0.52461241  0.94468993    -0.03100
C1248       C  0.69387667  0.51747065  0.94962051    -0.00600
C1249       C  0.69682702  0.50888911  0.92442483    -0.23400
C1250       C  0.68187891  0.51118214  0.90285766    -0.23600
C1251       C  0.66995423  0.52100930  0.91531626    -0.00700
H1252       H  0.70997259  0.50332867  0.92123718     0.13100
H1253       H  0.68050161  0.50697690  0.87989593     0.13200
N1254       N  0.54745357  0.70080735  0.89515721    -0.03100
C1255       C  0.55008405  0.69820845  0.86575723    -0.00600
C1256       C  0.55880649  0.72097493  0.84577647    -0.23400
C1257       C  0.56181903  0.73833767  0.86293129    -0.23600
C1258       C  0.55457767  0.72569289  0.89294877    -0.00700
H1259       H  0.56165066  0.72426498  0.82105766     0.13100
H1260       H  0.56698434  0.75770072  0.85413244     0.13200
C1261       C  0.40009925  0.54765080  0.81511084    -0.17500
C1262       C  0.41232291  0.54521558  0.79150406    -0.19700
C1263       C  0.41379984  0.52365320  0.79374296     0.21000
C1264       C  0.40391805  0.50491226  0.82067554    -0.02600
C1265       C  0.39123241  0.50719632  0.84437762    -0.05600
C1266       C  0.38884666  0.52839326  0.84118890     0.21300
C1267       C  0.38003943  0.48778375  0.87061309     0.19400
C1268       C  0.38309598  0.46711151  0.87373718    -0.17100
C1269       C  0.39632294  0.46522599  0.85063684    -0.19400
C1270       C  0.40635173  0.48373346  0.82368799     0.20900
C1271       C  0.41884619  0.48159717  0.79974412    -0.32400
C1272       C  0.42801553  0.49989640  0.77247763     0.01600
C1273       C  0.42520248  0.52068255  0.76961250    -0.23700
C1274       C  0.37379011  0.52909370  0.86301763    -0.28300
C1275       C  0.36058296  0.50863779  0.88761110     0.07300
C1276       C  0.36473469  0.48863284  0.89216776    -0.26900
H1277       H  0.39872233  0.56421348  0.81249814     0.12000
H1278       H  0.42034048  0.56005913  0.77128297     0.13100
H1279       H  0.37486786  0.45214703  0.89382170     0.12200
H1280       H  0.39822795  0.44897761  0.85356923     0.11500
H1281       H  0.42141103  0.46577498  0.80221515     0.16800
H1282       H  0.43291448  0.53516665  0.74900179     0.12800
H1283       H  0.37043334  0.54442081  0.85937825     0.15600
H1284       H  0.35431559  0.47269410  0.91088547     0.15400
C1285       C  0.41595571  0.54002100  0.97242715    -0.17500
C1286       C  0.42935983  0.53425450  0.48503821    -0.19700
C1287       C  0.42109067  0.51863191  0.51414398     0.21000
C1288       C  0.39484305  0.50213662  0.52201030    -0.02600
C1289       C  0.37721390  0.50128765  0.50066149    -0.05600
C1290       C  0.38974806  0.52203213  0.97640718     0.21300
C1291       C  0.35099023  0.48405302  0.50809881     0.19400
C1292       C  0.34263903  0.46826812  0.53708678    -0.17100
C1293       C  0.36005661  0.46957333  0.55849117    -0.19400
C1294       C  0.38616813  0.48639460  0.55115710     0.20900
C1295       C  0.40369419  0.48787362  0.57259495    -0.32400
C1296       C  0.42991906  0.50452478  0.56529436     0.01600
C1297       C  0.43850428  0.51943023  0.53565602    -0.23700
C1298       C  0.37362123  0.52219088  0.95371905    -0.28300
C1299       C  0.34738341  0.50378300  0.95726720     0.07300
C1300       C  0.33365419  0.48245623  0.48615936    -0.26900
H1301       H  0.42411373  0.55448659  0.95186946     0.12000
H1302       H  0.45200552  0.55379693  0.99145107     0.13100
H1303       H  0.32260887  0.45490803  0.54323603     0.12200
H1304       H  0.35308826  0.45729447  0.58077289     0.11500
H1305       H  0.39688544  0.47601397  0.59515842     0.16800
H1306       H  0.45862961  0.53227785  0.52975503     0.12800
H1307       H  0.38153715  0.53650020  0.93302057     0.15600
H1308       H  0.31363156  0.46832365  0.49130938     0.15400
C1309       C  0.50210972  0.64322918  0.79146551    -0.17500
C1310       C  0.49907175  0.62634644  0.77252107    -0.19700
C1311       C  0.51307431  0.61495732  0.77650339     0.21000
C1312       C  0.52993629  0.62015747  0.80022804    -0.02600
C1313       C  0.53325585  0.63749790  0.81912996    -0.05600
C1314       C  0.51936132  0.64915391  0.81449564     0.21300
C1315       C  0.55091571  0.64369539  0.84204789     0.19400
C1316       C  0.56447497  0.63177235  0.84639150    -0.17100
C1317       C  0.56079753  0.61414170  0.82803228    -0.19400
C1318       C  0.54375234  0.60837473  0.80470388     0.20900
C1319       C  0.54048437  0.59136569  0.78546094    -0.32400
C1320       C  0.52433541  0.58691954  0.76124164     0.01600
C1321       C  0.51067648  0.59866764  0.75694277    -0.23700
C1322       C  0.52366276  0.66734095  0.83209948    -0.28300
C1323       C  0.54202799  0.67458594  0.85387687     0.07300
C1324       C  0.55530523  0.66238121  0.85929770    -0.26900
H1325       H  0.49130677  0.65204395  0.78771853     0.12000
H1326       H  0.48591829  0.62236100  0.75457415     0.13100
H1327       H  0.57808656  0.63623946  0.86383188     0.12200
H1328       H  0.57157904  0.60530459  0.83177843     0.11500
H1329       H  0.55095910  0.58217282  0.78869862     0.16800
H1330       H  0.49797764  0.59488083  0.73845994     0.12800
H1331       H  0.51365523  0.67699818  0.82774093     0.15600
H1332       H  0.56976268  0.66828688  0.87576578     0.15400
C1333       C  0.56800577  0.68661741  0.50020910    -0.17500
C1334       C  0.56530517  0.66911049  0.52632993    -0.19700
C1335       C  0.54845593  0.64265578  0.52743091     0.21000
C1336       C  0.53388498  0.63388930  0.50207036    -0.02600
C1337       C  0.53607534  0.65160074  0.47606724    -0.05600
C1338       C  0.55352116  0.67807541  0.47489501     0.21300
C1339       C  0.52232186  0.63811578  0.94995754     0.19400
C1340       C  0.50764673  0.61170108  0.94971914    -0.17100
C1341       C  0.50297885  0.59886611  0.47713776    -0.19400
C1342       C  0.51740389  0.60739922  0.50242524     0.20900
C1343       C  0.51565757  0.58985217  0.52794727    -0.32400
C1344       C  0.52966556  0.59826698  0.55372274     0.01600
C1345       C  0.54600740  0.62482063  0.55327059    -0.23700
C1346       C  0.55423467  0.69088610  0.94986746    -0.28300
C1347       C  0.54180050  0.68242097  0.92316100     0.07300
C1348       C  0.52531554  0.65585432  0.92384154    -0.26900
H1349       H  0.58150461  0.70686711  0.49977944     0.12000
H1350       H  0.57668953  0.67626649  0.54551864     0.13100
H1351       H  0.49845285  0.60457078  0.92927041     0.12200
H1352       H  0.49434346  0.57401734  0.97455038     0.11500
H1353       H  0.50286204  0.56954109  0.52802142     0.16800
H1354       H  0.55697472  0.63158632  0.57288097     0.12800
H1355       H  0.56743321  0.71113719  0.94964198     0.15600
H1356       H  0.51487634  0.64882072  0.90407910     0.15400
C1357       C  0.58589016  0.50339699  0.88614100    -0.17500
C1358       C  0.57001688  0.50206923  0.86246911    -0.19700
C1359       C  0.58007821  0.51372356  0.83212823     0.21000
C1360       C  0.60649971  0.52775558  0.82582403    -0.02600
C1361       C  0.62254416  0.52944777  0.84980348    -0.05600
C1362       C  0.61215390  0.51655190  0.87998676     0.21300
C1363       C  0.64887948  0.54301882  0.84325202     0.19400
C1364       C  0.65906155  0.55539637  0.81312822    -0.17100
C1365       C  0.64318577  0.55352002  0.78939039    -0.19400
C1366       C  0.61687435  0.53942985  0.79540440     0.20900
C1367       C  0.60080173  0.53657468  0.77145533    -0.32400
C1368       C  0.57442169  0.52252568  0.77741832     0.01600
C1369       C  0.56421352  0.51130192  0.80793683    -0.23700
C1370       C  0.62800167  0.51569353  0.90288840    -0.28300
C1371       C  0.65412101  0.52803884  0.89595886     0.07300
C1372       C  0.66444322  0.54263581  0.86647336    -0.26900
H1373       H  0.57754633  0.49360841  0.90915611     0.12000
H1374       H  0.54978548  0.49140983  0.86779200     0.13100
H1375       H  0.67928064  0.56592185  0.80775278     0.12200
H1376       H  0.65147306  0.56275734  0.76622476     0.11500
H1377       H  0.60888093  0.54551518  0.74814642     0.16800
H1378       H  0.54389693  0.50033391  0.81281650     0.12800
H1379       H  0.61983533  0.50402080  0.92529948     0.15600
H1380       H  0.68453994  0.55201298  0.86093115     0.15400
C1381       C  0.62069075  0.49922750  0.56816445    -0.17500
C1382       C  0.63677218  0.49902372  0.54743195    -0.19700
C1383       C  0.64223759  0.51302051  0.51748692     0.21000
C1384       C  0.63114970  0.52720453  0.50830735    -0.02600
C1385       C  0.61438574  0.52695824  0.52912221    -0.05600
C1386       C  0.60937233  0.51308188  0.55925907     0.21300
C1387       C  0.60257226  0.54043204  0.51977050     0.19400
C1388       C  0.60806982  0.55439869  0.48970962    -0.17100
C1389       C  0.62653085  0.55785667  0.97297976    -0.19400
C1390       C  0.63804313  0.54410213  0.98135422     0.20900
C1391       C  0.65438503  0.54421237  0.96027234    -0.32400
C1392       C  0.66436628  0.52881337  0.96792498     0.01600
C1393       C  0.65813901  0.51256932  0.49647225    -0.23700
C1394       C  0.59298277  0.51305202  0.57996716    -0.28300
C1395       C  0.58062232  0.52595716  0.57095222     0.07300
C1396       C  0.58548314  0.53957666  0.54059722    -0.26900
H1397       H  0.61693192  0.48833160  0.59117313     0.12000
H1398       H  0.64499933  0.48792556  0.55488022     0.13100
H1399       H  0.60043949  0.56709338  0.98619135     0.12200
H1400       H  0.63057775  0.56933487  0.95029536     0.11500
H1401       H  0.65864938  0.55567517  0.93759006     0.16800
H1402       H  0.66547506  0.50057966  0.50331893     0.10100
H1403       H  0.58934413  0.50237128  0.60310921     0.15600
H1404       H  0.57629451  0.54976982  0.53337430     0.15400
C1405       C  0.45272884  0.36012798  0.81372058    -0.17500
C1406       C  0.44886049  0.34272860  0.84038151    -0.19700
C1407       C  0.45739987  0.35118500  0.86832126     0.21000
C1408       C  0.47023491  0.37750116  0.86938384    -0.02600
C1409       C  0.47357063  0.39505744  0.84253415    -0.05600
C1410       C  0.46479838  0.38628857  0.81456056     0.21300
C1411       C  0.48512305  0.42119906  0.84382414     0.19400
C1412       C  0.49399927  0.42968121  0.87178659    -0.17100
C1413       C  0.49122508  0.41237118  0.89821626    -0.19400
C1414       C  0.47902735  0.38613055  0.89739860     0.20900
C1415       C  0.47442204  0.36823358  0.92425614    -0.32400
C1416       C  0.45980274  0.34167007  0.92382865     0.01600
C1417       C  0.45221299  0.33357638  0.89539267    -0.23700
C1418       C  0.46779865  0.40365542  0.78799622    -0.28300
C1419       C  0.47875213  0.42971737  0.78899340     0.07300
C1420       C  0.48739552  0.43827933  0.81721298    -0.26900
H1421       H  0.44581240  0.35302300  0.79251032     0.12000
H1422       H  0.43891652  0.32255784  0.83919993     0.13100
H1423       H  0.50297100  0.44970179  0.87326744     0.12200
H1424       H  0.49803331  0.41942185  0.91949046     0.11500
H1425       H  0.48143136  0.37499747  0.94556541     0.16800
H1426       H  0.44086751  0.31331375  0.89456926     0.12800
H1427       H  0.46115443  0.39673346  0.76662008     0.15600
H1428       H  0.49613147  0.45831315  0.81847939     0.15400
C1429       C  0.42566904  0.36662289  0.57879771    -0.17500
C1430       C  0.42215420  0.34839723  0.56175460    -0.19700
C1431       C  0.43739209  0.35582292  0.53489309     0.21000
C1432       C  0.45584788  0.38188195  0.52452266    -0.02600
C1433       C  0.45919424  0.40033553  0.54153392    -0.05600
C1434       C  0.44442041  0.39255663  0.56917224     0.21300
C1435       C  0.47804478  0.42638916  0.53161572     0.19400
C1436       C  0.49276216  0.43383574  0.50424135    -0.17100
C1437       C  0.48174028  0.36539084  0.06079956    -0.19400
C1438       C  0.47164160  0.38937741  0.49791293     0.20900
C1439       C  0.46105761  0.34641283  0.01650367    -0.32400
C1440       C  0.44693524  0.34551578  0.99096481     0.01600
C1441       C  0.43504893  0.33747342  0.51892020    -0.23700
C1442       C  0.44951828  0.41062407  0.58750447    -0.28300
C1443       C  0.46931566  0.43635044  0.57870663     0.07300
C1444       C  0.48273076  0.44430735  0.55006441    -0.26900
H1445       H  0.41412758  0.36035697  0.59989848     0.12000
H1446       H  0.40794376  0.32839922  0.57001905     0.13100
H1447       H  0.50720334  0.45379594  0.49619518     0.12200
H1448       H  0.48639433  0.35113936  0.06740881     0.11500
H1449       H  0.46521384  0.33175839  0.02305415     0.16800
H1450       H  0.42075506  0.31750308  0.52713966     0.12800
H1451       H  0.43872742  0.40448362  0.60921920     0.15600
H1452       H  0.49790569  0.46416346  0.54301800     0.15400
C1453       C  0.79973614  0.58867937  0.99121215    -0.17500
C1454       C  0.77593639  0.58224915  0.98118438    -0.19700
C1455       C  0.75583818  0.55653000  0.98408175     0.21000
C1456       C  0.75987393  0.53710803  0.99726367    -0.02600
C1457       C  0.78414127  0.54359605  0.00661690    -0.05600
C1458       C  0.80408866  0.56950643  0.00369098     0.21300
C1459       C  0.78852180  0.52416929  0.01846245     0.19400
C1460       C  0.76951468  0.49620766  0.51422338    -0.17100
C1461       C  0.74443977  0.49202707  0.01208701    -0.19400
C1462       C  0.73999618  0.51118717  0.99980854     0.20900
C1463       C  0.71659536  0.50487451  0.98805638    -0.32400
C1464       C  0.71288573  0.52406648  0.97316112     0.01600
C1465       C  0.73232287  0.54987569  0.97226757    -0.23700
C1466       C  0.82793229  0.57580502  0.01366944    -0.28300
C1467       C  0.83238496  0.55661295  0.02618957     0.07300
C1468       C  0.81268939  0.53079837  0.02788510    -0.26900
H1469       H  0.81487465  0.60868856  0.98876694     0.12000
H1470       H  0.77332367  0.59742215  0.97085771     0.13100
H1471       H  0.77270958  0.48100415  0.52186236     0.12200
H1472       H  0.73031407  0.46984463  0.50777738     0.11500
H1473       H  0.70198262  0.48497158  0.98791241     0.16800
H1474       H  0.72997662  0.56470824  0.95978864     0.12800
H1475       H  0.84281239  0.59573306  0.01312667     0.15600
H1476       H  0.81686516  0.51359668  0.53081975     0.15400
C1477       C  0.20441319  0.46275281  0.50490890    -0.17500
C1478       C  0.21974355  0.45813226  0.48878100    -0.19700
C1479       C  0.24605776  0.47569290  0.48517068     0.21000
C1480       C  0.25905653  0.49867972  0.99598324    -0.02600
C1481       C  0.24234237  0.50141912  0.01294917    -0.05600
C1482       C  0.21512098  0.48502623  0.51772236     0.21300
C1483       C  0.25186479  0.52336223  0.02633224     0.19400
C1484       C  0.27786326  0.54231166  0.02276778    -0.17100
C1485       C  0.29437718  0.53958947  0.00603304    -0.19400
C1486       C  0.28522458  0.51787731  0.99249711     0.20900
C1487       C  0.30159464  0.51555508  0.97452796    -0.32400
C1488       C  0.29204051  0.49457067  0.95942614     0.01600
C1489       C  0.26604147  0.47514029  0.96383970    -0.23700
C1490       C  0.20003683  0.48920301  0.53536228    -0.28300
C1491       C  0.21117658  0.51096637  0.54935064     0.07300
C1492       C  0.23538138  0.52572977  0.04372520    -0.26900
H1493       H  0.18419105  0.44879031  0.50757021     0.12000
H1494       H  0.21099265  0.44082282  0.47903265     0.13100
H1495       H  0.28546365  0.55926045  0.03301720     0.12200
H1496       H  0.31431785  0.55459016  0.00348876     0.11500
H1497       H  0.32137815  0.53092495  0.97048105     0.16800
H1498       H  0.25267648  0.45467611  0.45755806     0.12800
H1499       H  0.17999819  0.47477779  0.53985199     0.15600
H1500       H  0.24296019  0.54236984  0.05461981     0.15400
C1501       C  0.96724370  0.56270185  0.64152528    -0.17500
C1502       C  0.95500658  0.56612088  0.61598984    -0.19700
C1503       C  0.92855119  0.55314778  0.61719350     0.21000
C1504       C  0.91424381  0.53634916  0.64435620    -0.02600
C1505       C  0.92661915  0.53339908  0.67035686    -0.05600
C1506       C  0.95323909  0.54659647  0.66883102     0.21300
C1507       C  0.91241521  0.51778231  0.69807437     0.19400
C1508       C  0.88593737  0.50468616  0.69923585    -0.17100
C1509       C  0.87363865  0.50738517  0.67335132    -0.19400
C1510       C  0.88764009  0.52337707  0.64598276     0.20900
C1511       C  0.87563618  0.52786070  0.62083752    -0.32400
C1512       C  0.88990209  0.54567718  0.59455453     0.01600
C1513       C  0.91623341  0.55777962  0.59241068    -0.23700
C1514       C  0.96542322  0.54372658  0.69476571    -0.28300
C1515       C  0.95145153  0.52856523  0.72251265     0.07300
C1516       C  0.92497947  0.51572761  0.72415081    -0.26900
H1517       H  0.98771279  0.57303362  0.64010490     0.12000
H1518       H  0.96625644  0.57916374  0.59542099     0.13100
H1519       H  0.87475444  0.49257155  0.72025891     0.12200
H1520       H  0.85319738  0.49742697  0.67495044     0.11500
H1521       H  0.85532021  0.51909666  0.62257105     0.16800
H1522       H  0.92714107  0.57198253  0.57234813     0.12800
H1523       H  0.98587946  0.55359853  0.69355433     0.15600
H1524       H  0.91421222  0.50371372  0.74546146     0.15400
C1525       C  0.90711267  0.56911461  0.94830175    -0.17500
C1526       C  0.92196747  0.56609402  0.92887861    -0.19700
C1527       C  0.92925056  0.54876759  0.93888041     0.21000
C1528       C  0.92146898  0.53431441  0.96880523    -0.02600
C1529       C  0.90603376  0.53705747  0.98829267    -0.05600
C1530       C  0.89897115  0.55467750  0.97806508     0.21300
C1531       C  0.89767209  0.52218357  0.01794177     0.19400
C1532       C  0.90518031  0.50501966  0.02805627    -0.17100
C1533       C  0.92070809  0.50253955  0.00894153    -0.19400
C1534       C  0.92889806  0.51698780  0.97913956     0.20900
C1535       C  0.94395621  0.51414212  0.95932199    -0.32400
C1536       C  0.95118714  0.52802187  0.92902274     0.01600
C1537       C  0.94383101  0.54541675  0.91925844    -0.23700
C1538       C  0.88453185  0.55809639  0.99799722    -0.28300
C1539       C  0.87669659  0.54394640  0.02808608     0.07300
C1540       C  0.88247356  0.52515504  0.03719037    -0.26900
H1541       H  0.90194318  0.58275186  0.93998135     0.12000
H1542       H  0.92777963  0.57735951  0.90595107     0.13100
H1543       H  0.89915696  0.49358816  0.05088810     0.12200
H1544       H  0.92614456  0.48913812  0.01741437     0.11500
H1545       H  0.94930600  0.50055651  0.96708869     0.16800
H1546       H  0.94943232  0.55637708  0.89614433     0.12800
H1547       H  0.88050275  0.57273462  0.99063870     0.15600
H1548       H  0.88036434  0.51413505  0.55866252     0.15400
C1549       C  0.91813046  0.36328543  0.74039789    -0.17500
C1550       C  0.90410361  0.34605026  0.72064657    -0.19700
C1551       C  0.89817462  0.35440489  0.69213255     0.21000
C1552       C  0.90707358  0.38049043  0.68293668    -0.02600
C1553       C  0.92197262  0.39806365  0.70249060    -0.05600
C1554       C  0.92696732  0.38927106  0.73167370     0.21300
C1555       C  0.93127782  0.42425245  0.69321504     0.19400
C1556       C  0.92546781  0.43258999  0.66450872    -0.17100
C1557       C  0.90982526  0.41499061  0.64566951    -0.19400
C1558       C  0.90042185  0.38885568  0.65471676     0.20900
C1559       C  0.88390437  0.37082426  0.63661270    -0.32400
C1560       C  0.87482718  0.34471119  0.64588513     0.01600
C1561       C  0.88270099  0.33690283  0.67324126    -0.23700
C1562       C  0.94034060  0.40648394  0.75185708    -0.28300
C1563       C  0.94966435  0.43261190  0.74293039     0.07300
C1564       C  0.94557229  0.44145220  0.71320517    -0.26900
H1565       H  0.92192437  0.35624581  0.76261615     0.12000
H1566       H  0.89732534  0.32603574  0.72802670     0.13100
H1567       H  0.93246128  0.45264296  0.65698585     0.12200
H1568       H  0.90500762  0.42181245  0.62407414     0.11500
H1569       H  0.87739894  0.37700043  0.61608947     0.16800
H1570       H  0.87582551  0.31684454  0.68054200     0.12800
H1571       H  0.94369726  0.39957246  0.77446533     0.15600
H1572       H  0.95270992  0.46158605  0.70605339     0.15400
C1573       C  0.93217017  0.38904341  0.05520680    -0.17500
C1574       C  0.94852553  0.40715424  0.03037659    -0.19700
C1575       C  0.93883585  0.41212204  0.00293548     0.21000
C1576       C  0.91236546  0.39876371  0.00065595    -0.02600
C1577       C  0.89589206  0.38125204  0.02613716    -0.05600
C1578       C  0.90582899  0.37607028  0.05334071     0.21300
C1579       C  0.86949126  0.36893124  0.02435855     0.19400
C1580       C  0.85971461  0.37305477  0.99658583    -0.17100
C1581       C  0.87598544  0.38961783  0.97096916    -0.19400
C1582       C  0.90231424  0.40287856  0.97292999     0.20900
C1583       C  0.91873542  0.42014770  0.94765088    -0.32400
C1584       C  0.94509350  0.43385710  0.94982906     0.01600
C1585       C  0.95506091  0.43001133  0.97766765    -0.23700
C1586       C  0.88926859  0.35783357  0.07806463    -0.28300
C1587       C  0.86833659  0.34606368  0.57501493     0.07300
C1588       C  0.85971663  0.35705937  0.55164982    -0.26900
H1589       H  0.94013086  0.38537697  0.07601068     0.12000
H1590       H  0.96876633  0.41709096  0.03253621     0.13100
H1591       H  0.84810255  0.38059889  0.50399073     0.12200
H1592       H  0.86796948  0.39234835  0.94973370     0.11500
H1593       H  0.91101069  0.42323713  0.92629754     0.16800
H1594       H  0.97538976  0.44039966  0.97933634     0.12800
H1595       H  0.89706267  0.35264048  0.09794031     0.15600
H1596       H  0.83998861  0.35090277  0.55240782     0.15400
C1597       C  0.10919544  0.45922788  0.69610885    -0.17500
C1598       C  0.09420720  0.45919505  0.71863806    -0.19700
C1599       C  0.08549623  0.47565658  0.71314048     0.21000
C1600       C  0.09111165  0.49154604  0.68411669    -0.02600
C1601       C  0.10660884  0.49189640  0.66152351    -0.05600
C1602       C  0.11599065  0.47594775  0.66783433     0.21300
C1603       C  0.11385585  0.50920682  0.63335287     0.19400
C1604       C  0.10415737  0.52479749  0.62735023    -0.17100
C1605       C  0.08828799  0.52397406  0.64943482    -0.19400
C1606       C  0.08218829  0.50790672  0.67813090     0.20900
C1607       C  0.06814706  0.50863716  0.70131188    -0.32400
C1608       C  0.06358635  0.49387275  0.73084352     0.01600
C1609       C  0.07199571  0.47711066  0.73642294    -0.23700
C1610       C  0.13343268  0.47828535  0.64672868    -0.28300
C1611       C  0.14253594  0.49707339  0.61999091     0.07300
C1612       C  0.13192504  0.51178408  0.61271238    -0.26900
H1613       H  0.11624321  0.44682415  0.70123488     0.12000
H1614       H  0.08990650  0.44669764  0.74062339     0.13100
H1615       H  0.10933183  0.53808501  0.60586707     0.12200
H1616       H  0.08143716  0.53651835  0.64443616     0.11500
H1617       H  0.06174522  0.52162901  0.69674735     0.16800
H1618       H  0.06823256  0.46540645  0.75892023     0.12800
H1619       H  0.14171510  0.46701336  0.65237810     0.15600
H1620       H  0.13912233  0.52648702  0.59232738     0.15400
C1621       C  0.15771082  0.52730619  0.96925639    -0.17500
C1622       C  0.14180419  0.52810430  0.94686502    -0.19700
C1623       C  0.11543755  0.51250968  0.95250046     0.21000
C1624       C  0.10493976  0.49523621  0.98050892    -0.02600
C1625       C  0.12104201  0.49396461  0.00281530    -0.05600
C1626       C  0.14752131  0.51058382  0.99745577     0.21300
C1627       C  0.11066738  0.47657802  0.03074883     0.19400
C1628       C  0.08425390  0.46018802  0.03578959    -0.17100
C1629       C  0.06827234  0.46181191  0.01394660    -0.19400
C1630       C  0.07840665  0.47956588  0.98643140     0.20900
C1631       C  0.06258613  0.48197313  0.96472849    -0.32400
C1632       C  0.07304717  0.49912788  0.93676375     0.01600
C1633       C  0.09942311  0.51404125  0.93069161    -0.23700
C1634       C  0.16333732  0.51096189  0.02079049    -0.28300
C1635       C  0.15320825  0.49457905  0.04933370     0.07300
C1636       C  0.12685571  0.47657884  0.05352823    -0.26900
H1637       H  0.17800949  0.54001063  0.96465652     0.12000
H1638       H  0.15014098  0.54131397  0.92536190     0.13100
H1639       H  0.07593228  0.44655724  0.05699588     0.12200
H1640       H  0.04797207  0.44932160  0.01870011     0.11500
H1641       H  0.04221208  0.47010815  0.96917739     0.16800
H1642       H  0.10748394  0.52717698  0.90905510     0.12800
H1643       H  0.18817690  0.53475505  0.51901869     0.15600
H1644       H  0.11885600  0.46329022  0.07500045     0.15400
C1645       C  0.08255595  0.58807994  0.63232062    -0.17500
C1646       C  0.09922059  0.60437108  0.60686691    -0.19700
C1647       C  0.11463009  0.63084496  0.60632934     0.21000
C1648       C  0.11242141  0.64101485  0.63126644    -0.02600
C1649       C  0.09625596  0.62449885  0.65737624    -0.05600
C1650       C  0.08149109  0.59788778  0.65799510     0.21300
C1651       C  0.09563420  0.63454779  0.68327485     0.19400
C1652       C  0.11017423  0.66111152  0.68221291    -0.17100
C1653       C  0.12569641  0.67751853  0.65606129    -0.19400
C1654       C  0.12732417  0.66758732  0.63081495     0.20900
C1655       C  0.14476862  0.68365920  0.60599323    -0.32400
C1656       C  0.14878477  0.67356626  0.58241068     0.01600
C1657       C  0.13320600  0.64715064  0.58227361    -0.23700
C1658       C  0.06655647  0.58147626  0.68460724    -0.28300
C1659       C  0.06666287  0.59119882  0.71104850     0.07300
C1660       C  0.08104350  0.61783961  0.71002947    -0.26900
H1661       H  0.07095543  0.56771429  0.63225534     0.12000
H1662       H  0.10037330  0.59621029  0.58784006     0.13100
H1663       H  0.10984536  0.66917937  0.70178387     0.12200
H1664       H  0.13710805  0.69793378  0.65600540     0.11500
H1665       H  0.15675052  0.70403592  0.60617955     0.16800
H1666       H  0.13651650  0.63914199  0.56459331     0.12800
H1667       H  0.05565423  0.56099573  0.68508506     0.15600
H1668       H  0.08114970  0.62556403  0.73014700     0.15400
C1669       C  0.16274177  0.64276586  0.94701810    -0.17500
C1670       C  0.14588295  0.62551903  0.92867183    -0.19700
C1671       C  0.12005410  0.61630011  0.93116361     0.21000
C1672       C  0.11103345  0.62437972  0.95245375    -0.02600
C1673       C  0.12814967  0.64221168  0.97051875    -0.05600
C1674       C  0.15410506  0.65136398  0.96783527     0.21300
C1675       C  0.11926104  0.65064063  0.99149325     0.19400
C1676       C  0.09329736  0.64092705  0.99443205    -0.17100
C1677       C  0.07625684  0.62290591  0.97690523    -0.19400
C1678       C  0.08492123  0.61453793  0.95582396     0.20900
C1679       C  0.06802125  0.59659717  0.93798052    -0.32400
C1680       C  0.07711669  0.58913708  0.91620930     0.01600
C1681       C  0.10308557  0.59909142  0.91280502    -0.23700
C1682       C  0.17088539  0.66850608  0.98649282    -0.28300
C1683       C  0.16218128  0.67673389  0.00781607     0.07300
C1684       C  0.13640609  0.66816660  0.00963588    -0.26900
H1685       H  0.18256999  0.64943158  0.94487543     0.12000
H1686       H  0.15302823  0.61927631  0.91264523     0.13100
H1687       H  0.08612326  0.64706397  0.01055521     0.12200
H1688       H  0.05629683  0.61556013  0.97978795     0.11500
H1689       H  0.04794903  0.58894728  0.94040208     0.16800
H1690       H  0.10998767  0.59309726  0.89612061     0.12800
H1691       H  0.19064466  0.67479023  0.98525276     0.15600
H1692       H  0.12963475  0.67469686  0.02570118     0.15400
C1693       C  0.81298916  0.27431225  0.00532964    -0.17500
C1694       C  0.79792500  0.26220289  0.98207018    -0.19700
C1695       C  0.77286799  0.25579687  0.98127137     0.21000
C1696       C  0.76886702  0.26254895  0.49741510    -0.02600
C1697       C  0.78445646  0.27494756  0.52058156    -0.05600
C1698       C  0.81003567  0.28234114  0.51999742     0.21300
C1699       C  0.77425091  0.27937526  0.54472850     0.19400
C1700       C  0.74875732  0.27163871  0.54545137    -0.17100
C1701       C  0.73336692  0.25949910  0.52241592    -0.19400
C1702       C  0.74320387  0.25482804  0.49834019     0.20900
C1703       C  0.72786763  0.24265690  0.47514584    -0.32400
C1704       C  0.73329776  0.23894722  0.95588681     0.01600
C1705       C  0.75811917  0.24470499  0.95727975    -0.23700
C1706       C  0.82511859  0.29379280  0.54389168    -0.28300
C1707       C  0.81471940  0.29757661  0.56835438     0.07300
C1708       C  0.78945492  0.29067200  0.56833008    -0.26900
H1709       H  0.83232920  0.27920177  0.00534213     0.12000
H1710       H  0.80596972  0.25808217  0.96448445     0.13100
H1711       H  0.74065610  0.27479485  0.56400346     0.12200
H1712       H  0.71372186  0.25362263  0.52353455     0.11500
H1713       H  0.70837150  0.23732695  0.47531808     0.16800
H1714       H  0.76614630  0.24107912  0.93910268     0.12800
H1715       H  0.83745229  0.29679353  0.05257918     0.15600
H1716       H  0.78138620  0.29333735  0.58742382     0.15400
C1717       C  0.52221194  0.30661835  0.93309555    -0.17500
C1718       C  0.53552027  0.29519118  0.92977047    -0.19700
C1719       C  0.52253828  0.26918152  0.92768713     0.21000
C1720       C  0.49589632  0.25454872  0.92838004    -0.02600
C1721       C  0.48246591  0.26618479  0.93129687    -0.05600
C1722       C  0.49570514  0.29227444  0.93405320     0.21300
C1723       C  0.45582240  0.25162809  0.93200622     0.19400
C1724       C  0.44287356  0.22579001  0.92895206    -0.17100
C1725       C  0.45620698  0.21423916  0.92605937    -0.19400
C1726       C  0.48272246  0.22835510  0.92614529     0.20900
C1727       C  0.49639168  0.21698959  0.92343183    -0.32400
C1728       C  0.52301994  0.23172425  0.92226714     0.01600
C1729       C  0.53584141  0.25770566  0.92452249    -0.23700
C1730       C  0.48219891  0.30330369  0.93887938    -0.28300
C1731       C  0.45564762  0.28847886  0.94133876     0.07300
C1732       C  0.44260038  0.26291939  0.93690466    -0.26900
H1733       H  0.53265803  0.32664549  0.93514360     0.12000
H1734       H  0.55600157  0.30666910  0.92906077     0.13100
H1735       H  0.42240430  0.21442111  0.92921641     0.12200
H1736       H  0.44576896  0.19423268  0.92391826     0.11500
H1737       H  0.48643988  0.19708897  0.92085087     0.16800
H1738       H  0.55634711  0.26914483  0.92332709     0.12800
H1739       H  0.49231999  0.32287644  0.94281334     0.15600
H1740       H  0.42208955  0.25147124  0.93883976     0.15400
C1741       C  0.59807492  0.13268765  0.50555595    -0.17500
C1742       C  0.61405183  0.15110674  0.48071923    -0.19700
C1743       C  0.64025127  0.16188862  0.48041923     0.21000
C1744       C  0.65052182  0.15451572  0.50574475    -0.02600
C1745       C  0.63444957  0.13636857  0.53117922    -0.05600
C1746       C  0.60806556  0.12509517  0.53081589     0.21300
C1747       C  0.64476831  0.12944545  0.55686687     0.19400
C1748       C  0.67104935  0.14070568  0.55680370    -0.17100
C1749       C  0.68688849  0.15816976  0.53126719    -0.19400
C1750       C  0.67679048  0.16501635  0.50550712     0.20900
C1751       C  0.69240730  0.18182393  0.47935205    -0.32400
C1752       C  0.68235157  0.18931472  0.45392429     0.01600
C1753       C  0.65628095  0.17961545  0.45505871    -0.23700
C1754       C  0.59216127  0.10667149  0.55585179    -0.28300
C1755       C  0.60228285  0.09998405  0.58185164     0.07300
C1756       C  0.62865157  0.11152211  0.58217820    -0.26900
H1757       H  0.57788318  0.12442086  0.50503860     0.12000
H1758       H  0.60585761  0.15661426  0.46150268     0.13100
H1759       H  0.67933960  0.13577309  0.57638107     0.12200
H1760       H  0.70705604  0.16628601  0.53164066     0.11500
H1761       H  0.71232718  0.18876444  0.47863680     0.16800
H1762       H  0.64690172  0.18636619  0.93340556     0.12800
H1763       H  0.57191098  0.09818315  0.55556031     0.15600
H1764       H  0.63659062  0.10647157  0.60208703     0.15400
C1765       C  0.62582367  0.16702634  0.78838735    -0.17500
C1766       C  0.64005920  0.18488612  0.80748757    -0.19700
C1767       C  0.64811178  0.17771465  0.83507513     0.21000
C1768       C  0.64153504  0.15225608  0.84368599    -0.02600
C1769       C  0.62710119  0.13419931  0.82443338    -0.05600
C1770       C  0.61936228  0.14166906  0.79656097     0.21300
C1771       C  0.62078204  0.10878003  0.83285924     0.19400
C1772       C  0.62939782  0.10183244  0.86003638    -0.17100
C1773       C  0.64394461  0.11978635  0.87889807    -0.19400
C1774       C  0.65002488  0.14500723  0.87106197     0.20900
C1775       C  0.66536741  0.16333974  0.88939848    -0.32400
C1776       C  0.67261814  0.18891595  0.88046131     0.01600
C1777       C  0.66345660  0.19577798  0.85357570    -0.23700
C1778       C  0.60555157  0.12370417  0.77726384    -0.28300
C1779       C  0.59883774  0.09821129  0.78582869     0.07300
C1780       C  0.60623147  0.09082679  0.81382059    -0.26900
H1781       H  0.62004815  0.17310738  0.76708803     0.12000
H1782       H  0.64507597  0.20441380  0.80046539     0.13100
H1783       H  0.62504589  0.08251291  0.86660583     0.12200
H1784       H  0.65059521  0.11396681  0.89955932     0.11500
H1785       H  0.67290118  0.15803363  0.90953720     0.16800
H1786       H  0.66916984  0.21552960  0.84640477     0.12800
H1787       H  0.59963643  0.12940130  0.75579766     0.15600
H1788       H  0.60113554  0.07123447  0.82039412     0.15400
C1789       C  0.54401742  0.18743470  0.53509887    -0.17500
C1790       C  0.53913135  0.16950126  0.56161373    -0.19700
C1791       C  0.52837593  0.14365902  0.55986995     0.21000
C1792       C  0.52146096  0.13563805  0.53121892    -0.02600
C1793       C  0.52601958  0.15373587  0.50445039    -0.05600
C1794       C  0.53802786  0.17983831  0.50634822     0.21300
C1795       C  0.51967099  0.14591684  0.47565679     0.19400
C1796       C  0.50810092  0.11991621  0.47402492    -0.17100
C1797       C  0.50397781  0.10206150  0.50044512    -0.19400
C1798       C  0.51095645  0.10978102  0.52912000     0.20900
C1799       C  0.50831836  0.09233770  0.55553405    -0.32400
C1800       C  0.51569362  0.10030367  0.58421926     0.01600
C1801       C  0.52522626  0.12595581  0.58612087    -0.23700
C1802       C  0.54539222  0.19809527  0.47936585    -0.28300
C1803       C  0.51968545  0.18030468  0.95090893     0.07300
C1804       C  0.50414122  0.15360414  0.95293040    -0.26900
H1805       H  0.55310313  0.20738935  0.53699514     0.12000
H1806       H  0.54442841  0.17599233  0.58341879     0.13100
H1807       H  0.47822531  0.10231279  0.96201339     0.12200
H1808       H  0.49574288  0.08227164  0.49834037     0.11500
H1809       H  0.50091122  0.07264536  0.55366137     0.16800
H1810       H  0.53129922  0.13245722  0.60782766     0.12800
H1811       H  0.55646058  0.21822535  0.48094708     0.15600
H1812       H  0.49675216  0.14556158  0.93243427     0.15400
C1813       C  0.56746849  0.13496550  0.87718603    -0.17500
C1814       C  0.56396061  0.11799145  0.85796636    -0.19700
C1815       C  0.54415804  0.10957120  0.83805588     0.21000
C1816       C  0.52710082  0.11744517  0.83838951    -0.02600
C1817       C  0.53021226  0.13395269  0.85833446    -0.05600
C1818       C  0.55092707  0.14337351  0.87720387     0.21300
C1819       C  0.51346429  0.14226421  0.85796578     0.19400
C1820       C  0.49355106  0.13368802  0.83833608    -0.17100
C1821       C  0.49073850  0.11769731  0.81822588    -0.19400
C1822       C  0.50762005  0.10982562  0.81773318     0.20900
C1823       C  0.50588073  0.09522940  0.79617858    -0.32400
C1824       C  0.52293816  0.08764596  0.79550731     0.01600
C1825       C  0.54158563  0.09419110  0.81700542    -0.23700
C1826       C  0.55549091  0.16215515  0.89422941    -0.28300
C1827       C  0.53919869  0.17093123  0.89296824     0.07300
C1828       C  0.51788269  0.16037160  0.87565753    -0.26900
H1829       H  0.58342231  0.14193964  0.89152548     0.12000
H1830       H  0.57718231  0.11207074  0.85799786     0.13100
H1831       H  0.48066662  0.14006939  0.83778154     0.12200
H1832       H  0.47569000  0.11194246  0.80257619     0.11500
H1833       H  0.49131741  0.08979115  0.77984101     0.16800
H1834       H  0.55463688  0.08810571  0.81654383     0.12800
H1835       H  0.57222931  0.17080850  0.90717547     0.15600
H1836       H  0.50576466  0.16774220  0.87424359     0.15400
C1837       C  0.22641998  0.80449164  0.93287786    -0.17500
C1838       C  0.21096334  0.77818171  0.94418619    -0.19700
C1839       C  0.22150811  0.76472778  0.95860280     0.21000
C1840       C  0.24810860  0.77735244  0.95855214    -0.02600
C1841       C  0.26367805  0.80399033  0.94761591    -0.05600
C1842       C  0.25260279  0.81778607  0.93621777     0.21300
C1843       C  0.28997461  0.81716130  0.95120571     0.19400
C1844       C  0.29631868  0.80341257  0.45798749    -0.17100
C1845       C  0.28029779  0.77708084  0.46844682    -0.19400
C1846       C  0.25900436  0.76401577  0.97253865     0.20900
C1847       C  0.24331147  0.73916466  0.98922145    -0.32400
C1848       C  0.21706915  0.72811493  0.99359991     0.01600
C1849       C  0.20605580  0.73999507  0.97605918    -0.23700
C1850       C  0.26736424  0.84464848  0.93165610    -0.28300
C1851       C  0.29272971  0.85772664  0.93957740     0.07300
C1852       C  0.30441553  0.84401775  0.94687105    -0.26900
H1853       H  0.21766729  0.81472850  0.92355618     0.12000
H1854       H  0.19063892  0.76872278  0.94338482     0.13100
H1855       H  0.31658555  0.81228311  0.45868905     0.12200
H1856       H  0.28854323  0.76618643  0.47702114     0.11500
H1857       H  0.24661866  0.73106295  0.49989371     0.16800
H1858       H  0.18590135  0.73165813  0.97928102     0.12800
H1859       H  0.25840175  0.85518196  0.92526892     0.15600
H1860       H  0.32146489  0.85416267  0.44994936     0.15400
C1861       C  0.43888605  0.99110987  0.51640252    -0.17500
C1862       C  0.42058735  0.98100692  0.49495302    -0.19700
C1863       C  0.39636579  0.95927824  0.50426582     0.21000
C1864       C  0.39070893  0.94742858  0.53548633    -0.02600
C1865       C  0.40886005  0.95812634  0.55726284    -0.05600
C1866       C  0.43309199  0.98001796  0.54766332     0.21300
C1867       C  0.40263875  0.94702621  0.58866635     0.19400
C1868       C  0.37871877  0.92483882  0.59788084    -0.17100
C1869       C  0.36104040  0.91377599  0.57621080    -0.19400
C1870       C  0.36677194  0.92508720  0.54506931     0.20900
C1871       C  0.34879877  0.91467656  0.52344362    -0.32400
C1872       C  0.35391491  0.92677409  0.49250196     0.01600
C1873       C  0.37759812  0.94934181  0.48310049    -0.23700
C1874       C  0.45096801  0.99056749  0.56953496    -0.28300
C1875       C  0.44467682  0.98001480  0.60106898     0.07300
C1876       C  0.42039388  0.95825409  0.61034674    -0.26900
H1877       H  0.45745317  0.00787823  0.50860643     0.12000
H1878       H  0.42538555  0.99018312  0.47107000     0.13100
H1879       H  0.37370240  0.91598990  0.62185955     0.12200
H1880       H  0.34271436  0.89658860  0.58388518     0.11500
H1881       H  0.33039672  0.89743879  0.53081533     0.16800
H1882       H  0.38139587  0.95896286  0.45940180     0.12800
H1883       H  0.46961521  0.00733283  0.56200695     0.15600
H1884       H  0.41536030  0.94981467  0.63445108     0.15400
C1885       C  0.41773344  0.93260768  0.91757600    -0.17500
C1886       C  0.43716039  0.94553067  0.89411687    -0.19700
C1887       C  0.43180964  0.94966393  0.86337396     0.21000
C1888       C  0.40646903  0.94002997  0.85625910    -0.02600
C1889       C  0.38698264  0.92744992  0.87993153    -0.05600
C1890       C  0.39263293  0.92394157  0.91081900     0.21300
C1891       C  0.36194047  0.91906114  0.87269863     0.19400
C1892       C  0.35629338  0.92219592  0.84199208    -0.17100
C1893       C  0.37545141  0.93415497  0.81856711    -0.19400
C1894       C  0.40060157  0.94345926  0.82551907     0.20900
C1895       C  0.41996818  0.95651160  0.80218865    -0.32400
C1896       C  0.44545482  0.96688997  0.80885806     0.01600
C1897       C  0.45124820  0.96338585  0.83964973    -0.23700
C1898       C  0.37327371  0.91283222  0.93434071    -0.28300
C1899       C  0.34872377  0.90633520  0.92727045     0.07300
C1900       C  0.34312231  0.90868573  0.89631159    -0.26900
H1901       H  0.42245400  0.92999872  0.94110599     0.12000
H1902       H  0.45642570  0.95250922  0.90007018     0.13100
H1903       H  0.33710278  0.91573042  0.83612029     0.12200
H1904       H  0.37066432  0.93658444  0.79502938     0.11500
H1905       H  0.41512830  0.95912511  0.77870095     0.16800
H1906       H  0.47075094  0.97112715  0.84509282     0.12800
H1907       H  0.37748794  0.91024738  0.95809293     0.15600
H1908       H  0.32423963  0.90363050  0.89063521     0.15400
C1909       C  0.49368340  0.73650867  0.94205009    -0.17500
C1910       C  0.48794291  0.75349885  0.95006086    -0.19700
C1911       C  0.50727224  0.77891178  0.95173860     0.21000
C1912       C  0.53265479  0.78708388  0.94579958    -0.02600
C1913       C  0.53847075  0.76985248  0.93796737    -0.05600
C1914       C  0.51887367  0.74452298  0.93568601     0.21300
C1915       C  0.56383967  0.77832515  0.93118395     0.19400
C1916       C  0.58318988  0.80350620  0.93349405    -0.17100
C1917       C  0.57746310  0.82039726  0.94169028    -0.19400
C1918       C  0.55225861  0.81256754  0.94738593     0.20900
C1919       C  0.54642357  0.82965538  0.95519930    -0.32400
C1920       C  0.52125681  0.82160859  0.96187355     0.01600
C1921       C  0.50176903  0.79615325  0.95987160    -0.23700
C1922       C  0.52470361  0.72830518  0.92509671    -0.28300
C1923       C  0.54976718  0.73744228  0.91589680     0.07300
C1924       C  0.56929753  0.76206122  0.92027816    -0.26900
H1925       H  0.47836309  0.71721401  0.94029636     0.12000
H1926       H  0.47563400  0.75460909  0.45458616     0.13100
H1927       H  0.60278030  0.81030872  0.92840508     0.12200
H1928       H  0.59277925  0.83975973  0.94312230     0.11500
H1929       H  0.56156624  0.84874795  0.95801954     0.16800
H1930       H  0.49071982  0.79777849  0.46362208     0.12800
H1931       H  0.50956633  0.70958558  0.92106521     0.15600
H1932       H  0.58857718  0.76930241  0.91266397     0.15400
C1933       C  0.51407462  0.94089294  0.50641658    -0.17500
C1934       C  0.51495715  0.95729482  0.52485321    -0.19700
C1935       C  0.53021990  0.96302370  0.54999037     0.21000
C1936       C  0.54573272  0.95323265  0.55565032    -0.02600
C1937       C  0.54526878  0.93719261  0.53667929    -0.05600
C1938       C  0.52870741  0.93024084  0.51256707     0.21300
C1939       C  0.56021541  0.92681488  0.54311752     0.19400
C1940       C  0.57617199  0.93325716  0.56748842    -0.17100
C1941       C  0.57630344  0.94877138  0.58655550    -0.19400
C1942       C  0.56073410  0.95833557  0.58125196     0.20900
C1943       C  0.55915447  0.97200958  0.60184356    -0.32400
C1944       C  0.54313689  0.98109628  0.59695425     0.01600
C1945       C  0.52938350  0.97733343  0.57040673    -0.23700
C1946       C  0.52582393  0.91141800  0.49665257    -0.28300
C1947       C  0.53950315  0.89987526  0.50466442     0.07300
C1948       C  0.55756305  0.90864857  0.52664054    -0.26900
H1949       H  0.50139684  0.93595298  0.48791895     0.12000
H1950       H  0.50301179  0.96475932  0.52011600     0.13100
H1951       H  0.58778831  0.92543963  0.57257099     0.12200
H1952       H  0.58808048  0.95272551  0.60594156     0.11500
H1953       H  0.57001401  0.97513585  0.62205772     0.16800
H1954       H  0.51695101  0.98429087  0.56655232     0.12800
H1955       H  0.51172092  0.90442498  0.47983989     0.15600
H1956       H  0.56796023  0.89955316  0.53280273     0.15400
C1957       C  0.56293782  0.96502840  0.88640254    -0.17500
C1958       C  0.56231865  0.94894027  0.91288975    -0.19700
C1959       C  0.54870437  0.92228388  0.91438735     0.21000
C1960       C  0.53571380  0.91183767  0.88879628    -0.02600
C1961       C  0.53686497  0.92817738  0.86167552    -0.05600
C1962       C  0.55037712  0.95488162  0.86057623     0.21300
C1963       C  0.52418486  0.91774213  0.83586919     0.19400
C1964       C  0.51010027  0.89105723  0.83767857    -0.17100
C1965       C  0.50853067  0.87490663  0.86469207    -0.19400
C1966       C  0.52128177  0.88505604  0.89042609     0.20900
C1967       C  0.51911082  0.86886890  0.91801784    -0.32400
C1968       C  0.53150447  0.87897759  0.94414541     0.01600
C1969       C  0.54727584  0.90591504  0.94131545    -0.23700
C1970       C  0.55079727  0.97089839  0.83389352    -0.28300
C1971       C  0.53835670  0.96072833  0.80785127     0.07300
C1972       C  0.52539367  0.93407897  0.80898148    -0.26900
H1973       H  0.57329659  0.98545825  0.88611754     0.12000
H1974       H  0.57217011  0.95734347  0.93243545     0.13100
H1975       H  0.50002545  0.88261560  0.81826363     0.12200
H1976       H  0.49723256  0.85439895  0.86547359     0.11500
H1977       H  0.50677564  0.84834863  0.91952574     0.16800
H1978       H  0.55802129  0.91433264  0.96031327     0.12800
H1979       H  0.56077740  0.99134520  0.83339651     0.15600
H1980       H  0.51538121  0.92595548  0.78935873     0.15400
loop_ 
_geom_bond_atom_site_label_1 
_geom_bond_atom_site_label_2 
_geom_bond_distance 
_geom_bond_site_symmetry_2 
_ccdc_geom_bond_type 
N1            C2   1.365       .  A
N1          C995   1.364       .  A
N1          C978   1.452       .  S
C2          C930   1.477       .  S
C2          C993   1.381       .  A
C3            C4   1.364       .  A
C3          C992   1.382   1_554  A
C3            H6   1.083       .  S
C4            C5   1.378       .  A
C4            H7   1.083       .  S
C5          N991   1.372   1_554  A
C5          C957   1.485       .  S
N8           C12   1.366       .  A
N8            C9   1.363       .  A
N8          C909   1.454       .  S
C9          C861   1.489       .  S
C9         C1000   1.384       .  A
C10          C11   1.370       .  A
C10         C999   1.382       .  A
C10          H13   1.082       .  S
C11        C1002   1.386       .  A
C11          H14   1.083       .  S
C12        C1872   1.482       .  S
C12        C1001   1.382       .  A
O15         Zr27   2.431       .  S
O15          C17   1.287       .  A
O16         Zr53   2.470   1_565  S
O16          C17   1.296       .  A
C17         C906   1.499       .  S
O18         Zr30   2.459       .  S
O18          C20   1.292       .  A
O19         Zr54   2.427       .  S
O19          C20   1.287   1_545  A
C20         C954   1.487       .  S
O21         Zr30   2.469       .  S
O21          C23   1.293       .  A
O22         Zr53   2.416       .  S
O22          C23   1.284   1_545  A
C23         C981   1.484       .  S
O24         Zr27   2.469       .  S
O24          C26   1.294       .  A
O25         Zr54   2.418       .  S
O25          C26   1.285   1_545  A
C26         C885   1.495       .  S
Zr27         O28   2.433       .  S
Zr27         O29   2.435       .  S
Zr27         O33   2.385       .  S
Zr27         O34   2.370       .  S
Zr27         O57   2.365   1_565  S
Zr27         O59   2.389   1_565  S
O28          H71   0.990       .  S
O29          H70   0.990   1_565  S
O29          H74   0.990       .  S
Zr30         O31   2.436       .  S
Zr30         O32   2.436       .  S
Zr30         O34   2.382       .  S
Zr30         O33   2.376       .  S
Zr30         O58   2.375   1_565  S
Zr30         O60   2.382   1_565  S
O31          H72   0.990       .  S
O31          H75   0.990       .  S
O32          H65   0.990   1_565  S
O33         Zr53   2.380   1_565  S
O34         Zr54   2.385   1_565  S
O34          H61   0.966       .  S
O35         Zr47   2.443       .  S
O35          C37   1.288       .  A
O36         Zr54   2.427       .  S
O36          C37   1.288       .  A
C37         C810   1.479       .  S
O38         Zr50   2.442       .  S
O38          C40   1.287       .  A
O39         Zr53   2.428       .  S
O39          C40   1.287       .  A
C40         C789   1.465       .  S
O41         Zr50   2.457       .  S
O41          C43   1.291       .  A
O42         Zr54   2.410       .  S
O42          C43   1.284       .  A
C43         C765   1.479       .  S
O44         Zr47   2.475       .  S
O44          C46   1.295       .  A
O45         Zr53   2.410       .  S
O45          C46   1.283       .  A
C46         C834   1.484       .  S
Zr47         O48   2.437       .  S
Zr47         O49   2.433       .  S
Zr47         O55   2.377       .  S
Zr47         O56   2.350       .  S
Zr47         O59   2.370       .  S
Zr47         O57   2.379       .  S
O48          H68   0.990       .  S
O48          H73   0.990       .  S
O49          H69   0.990       .  S
Zr50         O51   2.435       .  S
Zr50         O52   2.436       .  S
Zr50         O56   2.364       .  S
Zr50         O55   2.366       .  S
Zr50         O60   2.370       .  S
Zr50         O58   2.385       .  S
O51          H67   0.990       .  S
O52          H66   0.990       .  S
O52          H76   0.990       .  S
Zr53         O56   2.378       .  S
Zr53         O58   2.398       .  S
Zr53         O59   2.390       .  S
Zr54         O55   2.384       .  S
Zr54         O57   2.377       .  S
Zr54         O60   2.389       .  S
O55          H63   0.967       .  S
O58          H62   0.967       .  S
O59          H64   0.966       .  S
N77          C81   1.359       .  A
N77          C78   1.360       .  A
N77         C813   1.452       .  S
C78         C738   1.483       .  S
C78          C79   1.383       .  A
C79          C80   1.372       .  A
C79          H82   1.082       .  S
C80          C81   1.381       .  A
C80          H83   1.082       .  S
C81         C837   1.471       .  S
N84          C88   1.360       .  A
N84          C85   1.363       .  A
N84        C1752   1.450       .  S
C85         C714   1.477       .  S
C85          C86   1.382       .  A
C86          C87   1.369       .  A
C86          H89   1.082       .  S
C87          C88   1.380       .  A
C87          H90   1.083       .  S
C88         C786   1.473       .  S
O91        Zr103   2.426       .  S
O91          C93   1.285       .  A
O92        Zr129   2.439       .  S
O92          C93   1.290       .  A
C93         C642   1.470       .  S
O94        Zr106   2.483       .  S
O94          C96   1.297       .  A
O95        Zr130   2.389       .  S
O95          C96   1.280       .  A
C96         C669   1.483       .  S
O97        Zr106   2.470       .  S
O97          C99   1.293       .  A
O98        Zr129   2.431       .  S
O98          C99   1.287       .  A
C99         C690   1.487       .  S
O100       Zr103   2.459       .  S
O100        C102   1.292       .  A
O101       Zr130   2.400       .  S
O101        C102   1.281       .  A
C102        C618   1.480       .  S
Zr103       O104   2.436       .  S
Zr103       O105   2.431       .  S
Zr103       O109   2.380       .  S
Zr103       O110   2.359       .  S
Zr103       O133   2.366       .  S
Zr103       O135   2.384       .  S
O104        H147   0.990       .  S
O105        H146   0.990       .  S
O105        H150   0.990       .  S
Zr106       O107   2.435       .  S
Zr106       O108   2.435       .  S
Zr106       O110   2.371       .  S
Zr106       O109   2.372       .  S
Zr106       O134   2.381       .  S
Zr106       O136   2.377       .  S
O107        H148   0.990       .  S
O107        H151   0.990       .  S
O108        H141   0.989       .  S
O109       Zr129   2.390       .  S
O110       Zr130   2.375       .  S
O110        H137   0.966       .  S
O111       Zr123   2.448       .  S
O111        C113   1.289       .  A
O112       Zr130   2.400   1_655  S
O112        C113   1.282       .  A
C113        C573   1.470       .  S
O114       Zr126   2.421       .  S
O114        C116   1.286       .  A
O115       Zr129   2.458   1_655  S
O115        C116   1.293       .  A
C116        C546   1.487       .  S
O117       Zr126   2.442       .  S
O117        C119   1.287       .  A
O118       Zr130   2.396   1_655  S
O118        C119   1.281       .  A
C119        C525   1.464       .  S
O120       Zr123   2.444       .  S
O120        C122   1.288       .  A
O121       Zr129   2.428   1_655  S
O121        C122   1.286       .  A
C122        C594   1.472       .  S
Zr123       O124   2.438       .  S
Zr123       O125   2.435       .  S
Zr123       O131   2.367       .  S
Zr123       O132   2.368       .  S
Zr123       O135   2.374   1_655  S
Zr123       O133   2.378   1_655  S
O124        H144   0.990       .  S
O124        H149   0.990       .  S
O125        H145   0.990       .  S
Zr126       O127   2.433       .  S
Zr126       O128   2.433       .  S
Zr126       O132   2.374       .  S
Zr126       O131   2.362       .  S
Zr126       O136   2.363   1_655  S
Zr126       O134   2.377   1_655  S
O127        H143   0.990       .  S
O128        H142   0.990       .  S
O128        H152   0.990       .  S
Zr129       O132   2.378   1_455  S
Zr129       O134   2.391       .  S
Zr129       O135   2.395       .  S
Zr130       O131   2.368   1_455  S
Zr130       O133   2.374       .  S
Zr130       O136   2.373       .  S
O131        H139   0.965       .  S
O134        H138   0.967       .  S
O135        H140   0.967       .  S
N153        C157   1.366       .  A
N153        C154   1.370       .  A
N153       C1635   1.450       .  S
C154        C501   1.491       .  S
C154        C155   1.383       .  A
C155        C156   1.363       .  A
C155        H158   1.082       .  S
C156        C157   1.380       .  A
C156        H159   1.083       .  S
C157        C621   1.482       .  S
N160        C164   1.366       .  A
N160        C161   1.367       .  A
N160        C597   1.456       .  S
C161        C717   1.476       .  S
C161        C162   1.379       .  A
C162        C163   1.364       .  A
C162        H165   1.082       .  S
C163        C164   1.383       .  A
C163        H166   1.082       .  S
C164        C570   1.482       .  S
N167        C168   1.370       .  A
N167       C1161   1.364       .  A
N167        C549   1.458       .  S
C168        C477   1.485       .  S
C168       C1159   1.384       .  A
C169        C170   1.361       .  A
C169       C1158   1.385       .  A
C169        H172   1.083       .  S
C170        C171   1.376       .  A
C170        H173   1.083       .  S
C171       N1157   1.361       .  A
C171        C522   1.465       .  S
N174        C175   1.363       .  A
N174       C1168   1.367       .  A
N174        C693   1.450       .  S
C175        C858   1.482       .  S
C175       C1166   1.381       .  A
C176        C177   1.365       .  A
C176       C1165   1.383       .  A
C176        H179   1.082       .  S
C177        C178   1.381       .  A
C177        H180   1.083       .  S
C178       N1164   1.365       .  A
C178        C666   1.485       .  S
O181       Zr193   2.451       .  S
O181        C183   1.290       .  A
O182       Zr219   2.471       .  S
O182        C183   1.295       .  A
C183        C405   1.500       .  S
O184       Zr196   2.455       .  S
O184        C186   1.289       .  A
O185       Zr220   2.432       .  S
O185        C186   1.286       .  A
C186        C429   1.476       .  S
O187       Zr196   2.446       .  S
O187        C189   1.289       .  A
O188       Zr219   2.405       .  S
O188        C189   1.283       .  A
C189        C453   1.469       .  S
O190       Zr193   2.459       .  S
O190        C192   1.292       .  A
O191       Zr220   2.397       .  S
O191        C192   1.282       .  A
C192        C378   1.477       .  S
Zr193       O194   2.433       .  S
Zr193       O195   2.436       .  S
Zr193       O199   2.369       .  S
Zr193       O200   2.372       .  S
Zr193       O223   2.371       .  S
Zr193       O225   2.385       .  S
O194        H237   0.990       .  S
O195        H236   0.990       .  S
O195        H240   0.990       .  S
Zr196       O197   2.437       .  S
Zr196       O198   2.435       .  S
Zr196       O200   2.372       .  S
Zr196       O199   2.373       .  S
Zr196       O224   2.381       .  S
Zr196       O226   2.379       .  S
O197        H238   0.990       .  S
O197        H241   0.990       .  S
O198        H231   0.990       .  S
O199       Zr219   2.382       .  S
O200       Zr220   2.386       .  S
O200        H227   0.966       .  S
O201       Zr213   2.449       .  S
O201        C203   1.290       .  A
O202       Zr220   2.425       .  S
O202        C203   1.286       .  A
C203        C330   1.473       .  S
O204       Zr216   2.441       .  S
O204        C206   1.288       .  A
O205       Zr219   2.450       .  S
O205        C206   1.292       .  A
C206        C306   1.487       .  S
O207       Zr216   2.468       .  S
O207        C209   1.292       .  A
O208       Zr220   2.425       .  S
O208        C209   1.285       .  A
C209        C282   1.479       .  S
O210       Zr213   2.462       .  S
O210        C212   1.292       .  A
O211       Zr219   2.419       .  S
O211        C212   1.286       .  A
C212        C354   1.489       .  S
Zr213       O214   2.436       .  S
Zr213       O215   2.433       .  S
Zr213       O221   2.376       .  S
Zr213       O222   2.362       .  S
Zr213       O225   2.376       .  S
Zr213       O223   2.373       .  S
O214        H234   0.990       .  S
O214        H239   0.990       .  S
O215        H235   0.990       .  S
Zr216       O217   2.433       .  S
Zr216       O218   2.436       .  S
Zr216       O222   2.375       .  S
Zr216       O221   2.368       .  S
Zr216       O226   2.375       .  S
Zr216       O224   2.387       .  S
O217        H233   0.990       .  S
O218        H232   0.990       .  S
O218        H242   0.990       .  S
Zr219       O222   2.376       .  S
Zr219       O224   2.404       .  S
Zr219       O225   2.391       .  S
Zr220       O221   2.386       .  S
Zr220       O223   2.389       .  S
Zr220       O226   2.383       .  S
O221        H229   0.966       .  S
O224        H228   0.966       .  S
O225        H230   0.968       .  S
N243        C247   1.365       .  A
N243        C244   1.365       .  A
N243        C426   1.452       .  S
C244        C741   1.476       .  S
C244        C245   1.379       .  A
C245        C246   1.362       .  A
C245        H248   1.083       .  S
C246        C247   1.385       .  A
C246       H1239   1.082       .  S
C247        C450   1.490       .  S
H249       C1236   1.083   1_554  S
N250        C254   1.366       .  A
N250        C251   1.365       .  A
N250        C309   1.449       .  S
C251        C285   1.480       .  S
C251        C252   1.379       .  A
C252        C253   1.366       .  A
C252        H255   1.082       .  S
C253        C254   1.383       .  A
C253        H256   1.083       .  S
C254        C498   1.485       .  S
N257        C261   1.365       .  A
N257        C258   1.369       .  A
N257        C402   1.458       .  S
C258        C474   1.479       .  S
C258        C259   1.382       .  A
C259        C260   1.360       .  A
C259        H262   1.083       .  S
C260        C261   1.378       .  A
C260        H263   1.083       .  S
C261        C381   1.469       .  S
N264        C268   1.367       .  A
N264        C265   1.365       .  A
N264        C357   1.451       .  S
C265        C333   1.478       .  S
C265        C266   1.379       .  A
C266        C267   1.364       .  A
C266        H269   1.083       .  S
C267        C268   1.383       .  A
C267        H270   1.083       .  S
C268        C933   1.483       .  S
C271        C272   1.398       .  A
C271        C276   1.403       .  A
C271        H287   1.084       .  S
C272        C273   1.403       .  A
C272        H288   1.084       .  S
C273        C283   1.404       .  A
C273        C274   1.413       .  A
C274        C280   1.412       .  A
C274        C275   1.415       .  A
C275        C277   1.414       .  A
C275        C276   1.410       .  A
C276        C284   1.400       .  A
C277        C286   1.410       .  A
C277        C278   1.405       .  A
C278        C279   1.403       .  A
C278        H289   1.083       .  S
C279        C280   1.405       .  A
C279        H290   1.083       .  S
C280        C281   1.409       .  A
C281        C282   1.408       .  A
C281        H291   1.084       .  S
C282        C283   1.404       .  A
C283        H292   1.085       .  S
C284        C285   1.404       .  A
C284        H293   1.085       .  S
C285        C286   1.406       .  A
C286        H294   1.084       .  S
C295        C300   1.404       .  A
C295       C1286   1.401       .  A
C295        H311   1.084       .  S
C296        C297   1.403   1_556  A
C296       C1285   1.399       .  A
C296       H1302   1.080       .  S
C297        C307   1.406       .  A
C297        C298   1.411       .  A
C298        C304   1.411       .  A
C298        C299   1.417       .  A
C299        C301   1.412       .  A
C299       C1290   1.411   1_554  A
C300        C308   1.404       .  A
C300       C1289   1.409       .  A
C301        C310   1.410   1_554  A
C301        C302   1.405       .  A
C302        C303   1.403       .  A
C302        H313   1.083       .  S
C303        C304   1.405       .  A
C303        H314   1.083       .  S
C304        C305   1.409       .  A
C305        C306   1.410       .  A
C305        H315   1.084       .  S
C306        C307   1.406       .  A
C307        H316   1.083       .  S
C308        C309   1.409       .  A
C308        H317   1.082       .  S
C309       C1300   1.408       .  A
C310       C1299   1.409       .  A
C310        H318   1.083       .  S
H312       C1286   1.079       .  S
C319        C320   1.394       .  A
C319        C324   1.401       .  A
C319        H335   1.084       .  S
C320        C321   1.401       .  A
C320        H336   1.084       .  S
C321        C331   1.395       .  A
C321        C322   1.412       .  A
C322        C328   1.413       .  A
C322        C323   1.412       .  A
C323        C325   1.414       .  A
C323        C324   1.411       .  A
C324        C332   1.395       .  A
C325        C334   1.412       .  A
C325        C326   1.406       .  A
C326        C327   1.405       .  A
C326        H337   1.083       .  S
C327        C328   1.406       .  A
C327        H338   1.083       .  S
C328        C329   1.411       .  A
C329        C330   1.409       .  A
C329        H339   1.084       .  S
C330        C331   1.400       .  A
C331        H340   1.085       .  S
C332        C333   1.402       .  A
C332        H341   1.085       .  S
C333        C334   1.407       .  A
C334        H342   1.084       .  S
C343        C344   1.400       .  A
C343        C348   1.404   1_554  A
C343        H359   1.083       .  S
C344        C345   1.403       .  A
C344        H360   1.083       .  S
C345        C355   1.406       .  A
C345        C346   1.412       .  A
C346        C352   1.410       .  A
C346        C347   1.416   1_554  A
C347        C348   1.410       .  A
C347       C1339   1.411       .  A
C348       C1346   1.405       .  A
C349        C358   1.404       .  A
C349        C350   1.403       .  A
C349       C1337   1.411       .  A
C350       C1341   1.399       .  A
C350        H361   1.084       .  S
C351        C352   1.405   1_556  A
C351       C1340   1.401       .  A
C351       H1352   1.083       .  S
C352        C353   1.406       .  A
C353        C354   1.411       .  A
C353        H363   1.083       .  S
C354        C355   1.407       .  A
C355        H364   1.084       .  S
C356        C357   1.411       .  A
C356       C1338   1.410       .  A
C356        H365   1.083       .  S
C357        C358   1.408       .  A
C358        H366   1.082       .  S
H362       C1341   1.080       .  S
C367        C368   1.398       .  A
C367        C372   1.402       .  A
C367        H383   1.084       .  S
C368        C369   1.404       .  A
C368        H384   1.084       .  S
C369        C379   1.398       .  A
C369        C370   1.409       .  A
C370        C376   1.414       .  A
C370        C371   1.410       .  A
C371        C373   1.409       .  A
C371        C372   1.415       .  A
C372        C380   1.404       .  A
C373        C382   1.397       .  A
C373        C374   1.403       .  A
C374        C375   1.398       .  A
C374        H385   1.084       .  S
C375        C376   1.403       .  A
C375        H386   1.084       .  S
C376        C377   1.403       .  A
C377        C378   1.405       .  A
C377        H387   1.084       .  S
C378        C379   1.408       .  A
C379        H388   1.084       .  S
C380        C381   1.401       .  A
C380        H389   1.084       .  S
C381        C382   1.404       .  A
C382        H390   1.085       .  S
C391        C392   1.402       .  A
C391        C396   1.405       .  A
C391        H407   1.083       .  S
C392        C393   1.405       .  A
C392        H408   1.084       .  S
C393        C403   1.409   1_554  A
C393        C394   1.411       .  A
C394        C395   1.422       .  A
C394       C1390   1.411   1_554  A
C395        C397   1.413       .  A
C395        C396   1.411       .  A
C396        C404   1.409       .  A
C397        C406   1.417       .  A
C397        C398   1.406   1_554  A
C398       C1389   1.405       .  A
C398       H1399   1.083       .  S
C399        C400   1.407       .  A
C399       C1388   1.406       .  A
C399        H410   1.084       .  S
C400        C401   1.413       .  A
C400       C1384   1.409       .  A
C401        C402   1.416       .  A
C401        H411   1.081       .  S
C402       C1393   1.409       .  A
C403       C1392   1.412       .  A
C403        H412   1.083   1_556  S
C404        C405   1.412       .  A
C404        H413   1.084       .  S
C405        C406   1.411       .  A
C406        H414   1.084       .  S
H409       C1388   1.083       .  S
C415        C416   1.403       .  A
C415        C420   1.405       .  A
C415        H431   1.084       .  S
C416        C417   1.406       .  A
C416        H432   1.084       .  S
C417        C427   1.407       .  A
C417        C418   1.409       .  A
C418        C424   1.411       .  A
C418        C419   1.414       .  A
C419        C421   1.412       .  A
C419        C420   1.413       .  A
C420        C428   1.410       .  A
C421        C430   1.402       .  A
C421        C422   1.403       .  A
C422        C423   1.398       .  A
C422        H433   1.083       .  S
C423        C424   1.403       .  A
C423        H434   1.084       .  S
C424        C425   1.403       .  A
C425        C426   1.405       .  A
C425        H435   1.075       .  S
C426        C427   1.413       .  A
C427        H436   1.083       .  S
C428        C429   1.407       .  A
C428        H437   1.084       .  S
C429        C430   1.403       .  A
C430        H438   1.085       .  S
C439        C440   1.398   1_554  A
C439        C444   1.404       .  A
C439        H455   1.083       .  S
C440        C441   1.402       .  A
C440        H456   1.084       .  S
C441        C451   1.402       .  A
C441        C442   1.415   1_556  A
C442        C448   1.410       .  A
C442        C443   1.407       .  A
C443        C445   1.413       .  A
C443        C444   1.411       .  A
C444        C452   1.400       .  A
C445        C454   1.398       .  A
C445        C446   1.402       .  A
C446       C1437   1.396       .  A
C446        H457   1.084       .  S
C447       C1436   1.400       .  A
C447       C1438   1.404       .  A
C447        H458   1.084       .  S
C448       C1437   1.402       .  A
C448       C1439   1.393       .  A
C449        C450   1.409       .  A
C449       C1438   1.406       .  A
C449        H459   1.082       .  S
C450       C1441   1.408       .  A
C451       C1440   1.399       .  A
C451        H460   1.084       .  S
C452        C453   1.405       .  A
C452        H461   1.084       .  S
C453        C454   1.403       .  A
C454        H462   1.085       .  S
C463        C464   1.400       .  A
C463        C468   1.405       .  A
C463        H479   1.084       .  S
C464        C465   1.404       .  A
C464        H480   1.084       .  S
C465        C475   1.409       .  A
C465        C466   1.415       .  A
C466        C472   1.409       .  A
C466        C467   1.415       .  A
C467        C469   1.415       .  A
C467        C468   1.408       .  A
C468        C476   1.402       .  A
C469        C478   1.410       .  A
C469       C1460   1.403       .  A
C470       C1459   1.404       .  A
C470       C1461   1.402       .  A
C470        H481   1.083       .  S
C471        C472   1.404       .  A
C471       C1460   1.401       .  A
C471       H1472   1.083       .  S
C472        C473   1.403       .  A
C473        C474   1.408       .  A
C473        H483   1.085       .  S
C474        C475   1.406       .  A
C475        H484   1.084       .  S
C476        C477   1.410       .  A
C476        H485   1.085       .  S
C477        C478   1.406       .  A
C478       H1476   1.084       .  S
H482       C1461   1.083       .  S
H486       C1468   1.084       .  S
C487        C488   1.403   1_554  A
C487        C492   1.404       .  A
C487        H503   1.084       .  S
C488        C489   1.406       .  A
C488        H504   1.083       .  S
C489       C1489   1.406       .  A
C489       C1480   1.408       .  A
C490        C496   1.415       .  A
C490        C491   1.415       .  A
C490       C1479   1.408       .  A
C491        C493   1.409       .  A
C491       C1482   1.415       .  A
C492        C500   1.413       .  A
C492       C1481   1.415       .  A
C493        C502   1.402       .  A
C493        C494   1.405       .  A
C494        C495   1.401       .  A
C494        H505   1.084       .  S
C495        C496   1.404       .  A
C495        H506   1.083       .  S
C496        C497   1.411       .  A
C497        C498   1.406       .  A
C497        H507   1.084       .  S
C498        C499   1.408       .  A
C499       C1479   1.401       .  A
C499       H1498   1.085       .  S
C500        C501   1.407       .  A
C500        H509   1.084       .  S
C501       C1492   1.410       .  A
C502       C1491   1.408       .  A
C502        H510   1.084       .  S
H508       C1489   1.084       .  S
C511        C512   1.397       .  A
C511        C516   1.403       .  A
C511        H527   1.084       .  S
C512        C513   1.402       .  A
C512        H528   1.083       .  S
C513        C523   1.402       .  A
C513        C514   1.415       .  A
C514        C520   1.410       .  A
C514        C515   1.407       .  A
C515        C517   1.414       .  A
C515        C516   1.410       .  A
C516        C524   1.395       .  A
C517        C526   1.401       .  A
C517        C518   1.402       .  A
C518        C519   1.397       .  A
C518        H529   1.084       .  S
C519        C520   1.403       .  A
C519        H530   1.084       .  S
C520        C521   1.395       .  A
C521        C522   1.402       .  A
C521        H531   1.085       .  S
C522        C523   1.400       .  A
C523        H532   1.084       .  S
C524        C525   1.404       .  A
C524        H533   1.085       .  S
C525        C526   1.402       .  A
C526        H534   1.085       .  S
C535        C536   1.400       .  A
C535        C540   1.404       .  A
C535        H551   1.083       .  S
C536        C537   1.404       .  A
C536        H552   1.084       .  S
C537        C547   1.402       .  A
C537        C538   1.409       .  A
C538        C544   1.414       .  A
C538        C539   1.417       .  A
C539        C541   1.409       .  A
C539        C540   1.412       .  A
C540        C548   1.408       .  A
C541        C550   1.410       .  A
C541        C542   1.407       .  A
C542        C543   1.403       .  A
C542        H553   1.083       .  S
C543        C544   1.404       .  A
C543        H554   1.084       .  S
C544        C545   1.412       .  A
C545        C546   1.408       .  A
C545        H555   1.084       .  S
C546        C547   1.410       .  A
C547        H556   1.085       .  S
C548        C549   1.410       .  A
C548        H557   1.083       .  S
C549        C550   1.415       .  A
C550       H1548   1.081       .  S
H558       C1540   1.082       .  S
C559        C560   1.397       .  A
C559        C564   1.402       .  A
C559        H575   1.084       .  S
C560        C561   1.404       .  A
C560        H576   1.084       .  S
C561        C571   1.397       .  A
C561        C562   1.409       .  A
C562        C568   1.414       .  A
C562        C563   1.409       .  A
C563        C565   1.410       .  A
C563        C564   1.414       .  A
C564        C572   1.401       .  A
C565        C574   1.398       .  A
C565        C566   1.403       .  A
C566        C567   1.398       .  A
C566        H577   1.084       .  S
C567        C568   1.403       .  A
C567        H578   1.084       .  S
C568        C569   1.403       .  A
C569        C570   1.405       .  A
C569        H579   1.084       .  S
C570        C571   1.407       .  A
C571        H580   1.084       .  S
C572        C573   1.403       .  A
C572        H581   1.084       .  S
C573        C574   1.407       .  A
C574        H582   1.085       .  S
C583        C584   1.401       .  A
C583        C588   1.405       .  A
C583        H599   1.083       .  S
C584        C585   1.404       .  A
C584        H600   1.084       .  S
C585        C595   1.408       .  A
C585        C586   1.414       .  A
C586        C592   1.411       .  A
C586        C587   1.414       .  A
C587        C589   1.413       .  A
C587        C588   1.411       .  A
C588        C596   1.405       .  A
C589        C590   1.403       .  A
C589       C1588   1.405       .  A
C590        C591   1.399       .  A
C590       H1591   1.083       .  S
C591        C592   1.404       .  A
C591        H602   1.084       .  S
C592        C593   1.402       .  A
C593        C594   1.404       .  A
C593        H603   1.085       .  S
C594        C595   1.404       .  A
C595        H604   1.084       .  S
C596       C1587   1.408       .  A
C596        H605   1.084       .  S
C597        C598   1.411       .  A
C597       C1586   1.412       .  A
C598       C1579   1.404       .  A
C598        H606   1.081       .  S
H601       C1580   1.084       .  S
C607        C608   1.396       .  A
C607        C612   1.403       .  A
C607        H623   1.084       .  S
C608        C609   1.401       .  A
C608        H624   1.084       .  S
C609        C619   1.402       .  A
C609        C610   1.413       .  A
C610        C616   1.408       .  A
C610        C611   1.412       .  A
C611        C613   1.415       .  A
C611        C612   1.408       .  A
C612        C620   1.396       .  A
C613        C622   1.410       .  A
C613        C614   1.403       .  A
C614        C615   1.401       .  A
C614        H625   1.084       .  S
C615        C616   1.404       .  A
C615        H626   1.078       .  S
C616        C617   1.404       .  A
C617        C618   1.411       .  A
C617        H627   1.084       .  S
C618        C619   1.404       .  A
C619        H628   1.084       .  S
C620        C621   1.405       .  A
C620        H629   1.085       .  S
C621        C622   1.406       .  A
C622        H630   1.084       .  S
C631        C632   1.401       .  A
C631        C636   1.405       .  A
C631        H647   1.084       .  S
C632        C633   1.404       .  A
C632        H648   1.084       .  S
C633        C643   1.404       .  A
C633        C634   1.412       .  A
C634        C640   1.413       .  A
C634        C635   1.413       .  A
C635        C637   1.411       .  A
C635        C636   1.411       .  A
C636        C644   1.406       .  A
C637        C646   1.403       .  A
C637        C638   1.403       .  A
C638        C639   1.398       .  A
C638        H649   1.083       .  S
C639        C640   1.402       .  A
C639        H650   1.084       .  S
C640        C641   1.402       .  A
C641        C642   1.402       .  A
C641        H651   1.085       .  S
C642        C643   1.406       .  A
C643        H652   1.085       .  S
C644        C645   1.411       .  A
C644       H1643   1.083       .  S
C645       N1143   1.448       .  S
C645        C646   1.406       .  A
C646        H654   1.082       .  S
H653       C1634   1.083       .  S
C655        C656   1.403       .  A
C655        C660   1.405       .  A
C655        H671   1.078       .  S
C656        C657   1.404       .  A
C656        H672   1.084       .  S
C657        C667   1.412       .  A
C657        C658   1.415       .  A
C658        C664   1.408       .  A
C658        C659   1.414       .  A
C659        C661   1.414       .  A
C659        C660   1.407       .  A
C660        C668   1.406       .  A
C661        C670   1.403       .  A
C661        C662   1.401       .  A
C662        C663   1.397       .  A
C662        H673   1.084       .  S
C663        C664   1.403       .  A
C663        H674   1.083       .  S
C664        C665   1.397       .  A
C665        C666   1.406       .  A
C665        H675   1.085       .  S
C666        C667   1.408       .  A
C667        H676   1.084       .  S
C668        C669   1.414       .  A
C668        H677   1.084       .  S
C669        C670   1.402       .  A
C670        H678   1.084       .  S
C679        C680   1.398       .  A
C679        C684   1.403       .  A
C679        H695   1.084       .  S
C680        C681   1.403       .  A
C680        H696   1.083       .  S
C681        C691   1.404       .  A
C681        C682   1.412       .  A
C682        C688   1.412       .  A
C682        C683   1.416       .  A
C683        C685   1.412       .  A
C683        C684   1.409       .  A
C684        C692   1.400       .  A
C685        C694   1.409       .  A
C685        C686   1.404       .  A
C686        C687   1.403       .  A
C686        H697   1.084       .  S
C687        C688   1.406       .  A
C687        H698   1.083       .  S
C688        C689   1.412       .  A
C689        C690   1.410       .  A
C689        H699   1.084       .  S
C690        C691   1.406       .  A
C691        H700   1.084       .  S
C692        C693   1.409       .  A
C692        H701   1.083       .  S
C693        C694   1.409       .  A
C694        H702   1.082       .  S
C703        C704   1.400       .  A
C703       C1698   1.404       .  A
C703        H719   1.083       .  S
C704        C705   1.404       .  A
C704        H720   1.084       .  S
C705        C715   1.401       .  A
C705       C1696   1.409       .  A
C706        C712   1.415       .  A
C706        C707   1.412       .  A
C706       C1695   1.410   1_554  A
C707        C709   1.409       .  A
C707        C708   1.415       .  A
C708        C716   1.403       .  A
C708       C1693   1.402       .  A
C709        C718   1.401       .  A
C709        C710   1.405       .  A
C710        C711   1.401       .  A
C710        H721   1.084       .  S
C711        C712   1.404       .  A
C711        H722   1.083       .  S
C712        C713   1.408   1_554  A
C713       C1704   1.406       .  A
C713        H723   1.084       .  S
C714        C715   1.406       .  A
C714       C1703   1.402       .  A
C715        H724   1.084       .  S
C716        C717   1.402       .  A
C716       H1715   1.084       .  S
C717        C718   1.406       .  A
C718        H726   1.085       .  S
H725       C1706   1.084       .  S
C727        C728   1.400       .  A
C727        C732   1.404       .  A
C727        H743   1.084       .  S
C728        C729   1.404       .  A
C728        H744   1.084       .  S
C729        C739   1.404       .  A
C729        C730   1.411       .  A
C730        C736   1.411       .  A
C730        C731   1.412       .  A
C731        C733   1.411       .  A
C731        C732   1.411       .  A
C732        C740   1.403       .  A
C733        C742   1.403       .  A
C733        C734   1.403       .  A
C734        C735   1.398       .  A
C734        H745   1.083       .  S
C735        C736   1.403       .  A
C735        H746   1.084       .  S
C736        C737   1.402       .  A
C737        C738   1.405       .  A
C737        H747   1.084       .  S
C738        C739   1.408       .  A
C739        H748   1.084       .  S
C740        C741   1.407       .  A
C740        H749   1.084       .  S
C741        C742   1.406       .  A
C742        H750   1.085       .  S
C751        C752   1.399   1_554  A
C751        C756   1.404       .  A
C751        H767   1.084       .  S
C752        C753   1.403       .  A
C752        H768   1.084       .  S
C753        C763   1.404       .  A
C753        C754   1.412   1_556  A
C754        C760   1.411       .  A
C754        C755   1.413       .  A
C755        C757   1.413       .  A
C755        C756   1.411       .  A
C756        C764   1.402       .  A
C757        C766   1.405       .  A
C757        C758   1.403       .  A
C758        C759   1.400       .  A
C758        H769   1.084       .  S
C759        C760   1.404       .  A
C759        H770   1.084       .  S
C760        C761   1.403   1_554  A
C761        C762   1.408       .  A
C761        H771   1.083       .  S
C762       N1074   1.446       .  S
C762        C763   1.406       .  A
C763       H1762   1.083       .  S
C764        C765   1.408       .  A
C764        H773   1.085       .  S
C765        C766   1.405       .  A
C766        H774   1.084       .  S
H772       C1753   1.083       .  S
C775        C776   1.398       .  A
C775        C780   1.404       .  A
C775        H791   1.084       .  S
C776        C777   1.403       .  A
C776        H792   1.084       .  S
C777        C787   1.400       .  A
C777        C778   1.411       .  A
C778        C784   1.413       .  A
C778        C779   1.410       .  A
C779        C781   1.413       .  A
C779        C780   1.412       .  A
C780        C788   1.401       .  A
C781        C790   1.403       .  A
C781        C782   1.403       .  A
C782        C783   1.399       .  A
C782        H793   1.083       .  S
C783        C784   1.403       .  A
C783        H794   1.083       .  S
C784        C785   1.403       .  A
C785        C786   1.402       .  A
C785        H795   1.084       .  S
C786        C787   1.404       .  A
C787        H796   1.085       .  S
C788        C789   1.404       .  A
C788        H797   1.085       .  S
C789        C790   1.401       .  A
C790        H798   1.084       .  S
C799        C800   1.400       .  A
C799        C804   1.404       .  A
C799        H815   1.084       .  S
C800        C801   1.404       .  A
C800        H816   1.084       .  S
C801        C811   1.405       .  A
C801        C802   1.412       .  A
C802        C808   1.412       .  A
C802        C803   1.413       .  A
C803        C805   1.411   1_554  A
C803        C804   1.411       .  A
C804        C812   1.405   1_554  A
C805        C806   1.403       .  A
C805       C1804   1.403       .  A
C806        C807   1.399   1_556  A
C806       H1807   1.084       .  S
C807        C808   1.403       .  A
C807        H818   1.084       .  S
C808        C809   1.402       .  A
C809        C810   1.406       .  A
C809        H819   1.085       .  S
C810        C811   1.408       .  A
C811        H820   1.084       .  S
C812       C1803   1.409       .  A
C812        H821   1.084       .  S
C813        C814   1.411       .  A
C813       C1802   1.409       .  A
C814       C1795   1.408       .  A
C814        H822   1.081       .  S
H817       C1796   1.084       .  S
C823        C824   1.404       .  A
C823        C828   1.404       .  A
C823        H839   1.084       .  S
C824        C825   1.407       .  A
C824        H840   1.083       .  S
C825        C835   1.410       .  A
C825        C826   1.410       .  A
C826        C832   1.412       .  A
C826        C827   1.412       .  A
C827        C829   1.411       .  A
C827        C828   1.414       .  A
C828        C836   1.409       .  A
C829        C838   1.396       .  A
C829        C830   1.402       .  A
C830        C831   1.395       .  A
C830        H841   1.084       .  S
C831        C832   1.401       .  A
C831        H842   1.084       .  S
C832        C833   1.400       .  A
C833        C834   1.402       .  A
C833        H843   1.084       .  S
C834        C835   1.414       .  A
C835        H844   1.084       .  S
C836        C837   1.405       .  A
C836        H845   1.084       .  S
C837        C838   1.401       .  A
C838        H846   1.085       .  S
C847        C848   1.400       .  A
C847        C852   1.404       .  A
C847        H863   1.084       .  S
C848        C849   1.404       .  A
C848        H864   1.083       .  S
C849        C859   1.407       .  A
C849        C850   1.413       .  A
C850        C856   1.410       .  A
C850        C851   1.412       .  A
C851        C853   1.412       .  A
C851        C852   1.410       .  A
C852        C860   1.403       .  A
C853        C862   1.404       .  A
C853       C1844   1.403       .  A
C854        C855   1.400       .  A
C854       C1843   1.403       .  A
C854        H865   1.084       .  S
C855       C1846   1.405       .  A
C855        H866   1.083       .  S
C856        C857   1.400       .  A
C856       C1845   1.403       .  A
C857        C858   1.406       .  A
C857       H1857   1.085       .  S
C858        C859   1.405       .  A
C859        H868   1.084       .  S
C860        C861   1.409       .  A
C860        H869   1.084       .  S
C861        C862   1.407       .  A
C862       H1860   1.083       .  S
H867       C1847   1.085   1_554  S
H870       C1852   1.084       .  S
C871        C872   1.406   1_554  A
C871        C876   1.408       .  A
C871        H887   1.083   1_565  S
C872        C873   1.406   1_556  A
C872        H888   1.084       .  S
C873        C883   1.415   1_554  A
C873        C874   1.415       .  A
C874        C880   1.408       .  A
C874        C875   1.415       .  A
C875        C877   1.413       .  A
C875        C876   1.409       .  A
C876        C884   1.410       .  A
C877        C886   1.403       .  A
C877        C878   1.402       .  A
C878        C879   1.396       .  A
C878        H889   1.083       .  S
C879        C880   1.402       .  A
C879        H890   1.084       .  S
C880        C881   1.396       .  A
C881        C882   1.406   1_554  A
C881        H891   1.085       .  S
C882       C1002   1.490       .  S
C882        C883   1.410       .  A
C883        H892   1.084       .  S
C884        C885   1.416       .  A
C884        H893   1.084   1_565  S
C885        C886   1.406       .  A
C886        H894   1.084       .  S
C895        C896   1.402       .  A
C895        C900   1.404       .  A
C895        H911   1.084       .  S
C896        C897   1.405       .  A
C896        H912   1.083       .  S
C897        C907   1.410       .  A
C897        C898   1.412       .  A
C898        C904   1.410       .  A
C898        C899   1.416       .  A
C899        C901   1.409       .  A
C899        C900   1.411       .  A
C900        C908   1.408       .  A
C901        C910   1.403       .  A
C901        C902   1.404       .  A
C902        C903   1.400       .  A
C902        H913   1.084       .  S
C903        C904   1.406       .  A
C903        H914   1.084       .  S
C904        C905   1.406       .  A
C905        C906   1.415       .  A
C905        H915   1.084       .  S
C906        C907   1.409       .  A
C907        H916   1.084       .  S
C908        C909   1.409       .  A
C908        H917   1.080       .  S
C909        C910   1.412       .  A
C910        H918   1.083       .  S
C919        C920   1.400       .  A
C919        C924   1.404       .  A
C919        H935   1.083       .  S
C920        C921   1.404       .  A
C920       H1926   1.084       .  S
C921        C931   1.401       .  A
C921        C922   1.409       .  A
C922        C928   1.415       .  A
C922        C923   1.414       .  A
C923        C925   1.409       .  A
C923        C924   1.415       .  A
C924        C932   1.410       .  A
C925        C934   1.402       .  A
C925        C926   1.405       .  A
C926        C927   1.400       .  A
C926        H937   1.083       .  S
C927        C928   1.403       .  A
C927        H938   1.084       .  S
C928        C929   1.407       .  A
C929        C930   1.404       .  A
C929        H939   1.084       .  S
C930        C931   1.406       .  A
C931       H1930   1.085       .  S
C932        C933   1.406       .  A
C932        H941   1.084       .  S
C933        C934   1.408       .  A
C934        H942   1.085       .  S
H936       C1910   1.083       .  S
H940       C1921   1.084       .  S
C943        C944   1.403       .  A
C943        C948   1.405       .  A
C943        H959   1.083   1_554  S
C944        C945   1.405       .  A
C944        H960   1.084       .  S
C945        C955   1.410       .  A
C945        C946   1.412       .  A
C946        C952   1.412       .  A
C946        C947   1.416       .  A
C947        C949   1.411       .  A
C947        C948   1.413       .  A
C948        C956   1.411       .  A
C949        C958   1.404       .  A
C949        C950   1.404       .  A
C950        C951   1.399       .  A
C950        H961   1.083       .  S
C951        C952   1.403       .  A
C951        H962   1.084       .  S
C952        C953   1.403       .  A
C953        C954   1.407       .  A
C953        H963   1.084       .  S
C954        C955   1.411       .  A
C955        H964   1.084       .  S
C956        C957   1.406       .  A
C956        H965   1.084   1_554  S
C957        C958   1.407       .  A
C958        H966   1.085       .  S
C967        C968   1.402       .  A
C967        C972   1.405       .  A
C967        H983   1.084       .  S
C968        C969   1.405       .  A
C968        H984   1.084       .  S
C969        C979   1.406       .  A
C969        C970   1.410       .  A
C970        C976   1.411       .  A
C970        C971   1.415       .  A
C971        C973   1.412       .  A
C971        C972   1.412       .  A
C972        C980   1.408       .  A
C973        C982   1.405       .  A
C973        C974   1.404       .  A
C974        C975   1.400       .  A
C974        H985   1.083       .  S
C975        C976   1.404       .  A
C975        H986   1.083       .  S
C976        C977   1.405       .  A
C977        C978   1.409       .  A
C977        H987   1.082       .  S
C978        C979   1.411       .  A
C979        H988   1.081       .  S
C980        C981   1.410       .  A
C980        H989   1.084       .  S
C981        C982   1.406       .  A
C982        H990   1.084       .  S
N991        C992   1.377       .  A
N991       C1968   1.463       .  S
C992       C1920   1.492       .  S
C993        C994   1.363       .  A
C993        H996   1.083       .  S
C994        C995   1.380       .  A
C994        H997   1.083       .  S
C995       C1947   1.474       .  S
N998       C1002   1.363       .  A
N998        C999   1.362       .  A
N998       C1899   1.445       .  S
C999       C1851   1.489       .  S
C1000      C1001   1.368       .  A
C1000      H1003   1.082       .  S
C1001      H1004   1.083       .  S
O1005     Zr1017   2.433       .  S
O1005      C1007   1.287       .  A
O1006     Zr1043   2.451   1_565  S
O1006      C1007   1.290       .  A
C1007      C1896   1.491       .  S
O1008     Zr1020   2.450       .  S
O1008      C1010   1.291       .  A
O1009     Zr1044   2.406       .  S
O1009      C1010   1.283   1_545  A
C1010      C1944   1.475       .  S
O1011     Zr1020   2.481       .  S
O1011      C1013   1.295       .  A
O1012     Zr1043   2.432   1_565  S
O1012      C1013   1.288       .  A
C1013      C1971   1.498       .  S
O1014     Zr1017   2.457       .  S
O1014      C1016   1.292       .  A
O1015     Zr1044   2.413       .  S
O1015      C1016   1.284   1_545  A
C1016      C1875   1.486       .  S
Zr1017     O1018   2.435       .  S
Zr1017     O1019   2.438       .  S
Zr1017     O1023   2.381       .  S
Zr1017     O1024   2.372       .  S
Zr1017     O1047   2.378   1_565  S
Zr1017     O1049   2.367   1_565  S
O1018      H1061   0.990       .  S
O1019      H1060   0.990       .  S
O1019      H1064   0.990   1_565  S
Zr1020     O1021   2.434       .  S
Zr1020     O1022   2.435       .  S
Zr1020     O1024   2.380       .  S
Zr1020     O1023   2.374       .  S
Zr1020     O1048   2.382   1_565  S
Zr1020     O1050   2.383   1_565  S
O1021      H1062   0.990       .  S
O1021      H1065   0.990       .  S
O1022      H1055   0.990       .  S
O1023     Zr1043   2.375   1_565  S
O1024     Zr1044   2.387   1_565  S
O1024      H1051   0.966       .  S
O1025     Zr1037   2.488       .  S
O1025      C1027   1.298       .  A
O1026     Zr1044   2.422       .  S
O1026      C1027   1.286       .  A
C1027      C1800   1.497       .  S
O1028     Zr1040   2.448       .  S
O1028      C1030   1.288       .  A
O1029     Zr1043   2.438       .  S
O1029      C1030   1.288       .  A
C1030      C1779   1.480       .  S
O1031     Zr1040   2.464       .  S
O1031      C1033   1.292       .  A
O1032     Zr1044   2.424       .  S
O1032      C1033   1.286       .  A
C1033      C1755   1.486       .  S
O1034     Zr1037   2.469       .  S
O1034      C1036   1.294       .  A
O1035     Zr1043   2.387       .  S
O1035      C1036   1.280       .  A
C1036      C1824   1.466       .  S
Zr1037     O1038   2.435       .  S
Zr1037     O1039   2.436       .  S
Zr1037     O1045   2.370       .  S
Zr1037     O1046   2.363       .  S
Zr1037     O1049   2.382       .  S
Zr1037     O1047   2.374       .  S
O1038      H1058   0.990       .  S
O1038      H1063   0.990       .  S
O1039      H1059   0.990       .  S
Zr1040     O1041   2.434       .  S
Zr1040     O1042   2.435       .  S
Zr1040     O1046   2.358       .  S
Zr1040     O1045   2.371       .  S
Zr1040     O1050   2.366       .  S
Zr1040     O1048   2.387       .  S
O1041      H1057   0.991       .  S
O1042      H1056   0.990       .  S
O1042      H1066   0.990       .  S
Zr1043     O1046   2.379       .  S
Zr1043     O1048   2.387       .  S
Zr1043     O1049   2.393       .  S
Zr1044     O1045   2.378       .  S
Zr1044     O1047   2.385       .  S
Zr1044     O1050   2.383       .  S
O1045      H1053   0.967       .  S
O1048      H1052   0.967       .  S
O1049      H1054   0.966       .  S
N1067      C1071   1.358       .  A
N1067      C1068   1.357       .  A
N1067      C1803   1.445       .  S
C1068      C1728   1.480       .  S
C1068      C1069   1.383       .  A
C1069      C1070   1.370       .  A
C1069      H1072   1.082       .  S
C1070      C1071   1.380       .  A
C1070      H1073   1.083       .  S
C1071      C1827   1.467       .  S
N1074      C1078   1.365       .  A
N1074      C1075   1.361       .  A
C1075      C1704   1.479       .  S
C1075      C1076   1.380       .  A
C1076      C1077   1.370       .  A
C1076      H1079   1.082       .  S
C1077      C1078   1.384       .  A
C1077      H1080   1.082       .  S
C1078      C1776   1.487       .  S
O1081     Zr1093   2.438       .  S
O1081      C1083   1.287       .  A
O1082     Zr1119   2.440       .  S
O1082      C1083   1.289       .  A
C1083      C1632   1.477       .  S
O1084     Zr1096   2.453       .  S
O1084      C1086   1.290       .  A
O1085     Zr1120   2.413       .  S
O1085      C1086   1.284       .  A
C1086      C1659   1.484       .  S
O1087     Zr1096   2.429       .  S
O1087      C1089   1.285       .  A
O1088     Zr1119   2.428       .  S
O1088      C1089   1.286       .  A
C1089      C1680   1.468       .  S
O1090     Zr1093   2.477       .  S
O1090      C1092   1.295       .  A
O1091     Zr1120   2.404       .  S
O1091      C1092   1.283       .  A
C1092      C1608   1.485       .  S
Zr1093     O1094   2.435       .  S
Zr1093     O1095   2.438       .  S
Zr1093     O1099   2.374       .  S
Zr1093     O1100   2.368       .  S
Zr1093     O1123   2.369       .  S
Zr1093     O1125   2.386       .  S
O1094      H1137   0.990       .  S
O1095      H1136   0.990       .  S
O1095      H1140   0.990       .  S
Zr1096     O1097   2.441       .  S
Zr1096     O1098   2.435       .  S
Zr1096     O1100   2.367       .  S
Zr1096     O1099   2.370       .  S
Zr1096     O1124   2.383       .  S
Zr1096     O1126   2.373       .  S
O1097      H1138   0.990       .  S
O1097      H1141   0.990       .  S
O1098      H1131   0.990       .  S
O1099     Zr1119   2.388       .  S
O1100     Zr1120   2.374       .  S
O1100      H1127   0.966       .  S
O1101     Zr1113   2.477       .  S
O1101      C1103   1.295       .  A
O1102     Zr1120   2.409   1_655  S
O1102      C1103   1.283       .  A
C1103      C1563   1.486       .  S
O1104     Zr1116   2.452       .  S
O1104      C1106   1.290       .  A
O1105     Zr1119   2.457   1_655  S
O1105      C1106   1.292       .  A
C1106      C1536   1.498       .  S
O1107     Zr1116   2.459       .  S
O1107      C1109   1.291       .  A
O1108     Zr1120   2.397   1_655  S
O1108      C1109   1.281       .  A
C1109      C1515   1.470       .  S
O1110     Zr1113   2.455       .  S
O1110      C1112   1.291       .  A
O1111     Zr1119   2.423   1_655  S
O1111      C1112   1.286       .  A
C1112      C1584   1.480       .  S
Zr1113     O1114   2.436       .  S
Zr1113     O1115   2.435       .  S
Zr1113     O1121   2.373       .  S
Zr1113     O1122   2.377       .  S
Zr1113     O1125   2.371   1_655  S
Zr1113     O1123   2.372   1_655  S
O1114      H1134   0.990       .  S
O1114      H1139   0.990       .  S
O1115      H1135   0.990       .  S
Zr1116     O1117   2.434       .  S
Zr1116     O1118   2.435       .  S
Zr1116     O1122   2.369       .  S
Zr1116     O1121   2.371       .  S
Zr1116     O1126   2.377   1_655  S
Zr1116     O1124   2.381   1_655  S
O1117      H1133   0.990       .  S
O1118      H1132   0.990       .  S
O1118      H1142   0.990       .  S
Zr1119     O1122   2.380   1_455  S
Zr1119     O1124   2.391       .  S
Zr1119     O1125   2.398       .  S
Zr1120     O1121   2.381   1_455  S
Zr1120     O1123   2.381       .  S
Zr1120     O1126   2.375       .  S
O1121      H1129   0.965       .  S
O1124      H1128   0.967       .  S
O1125      H1130   0.967       .  S
N1143      C1147   1.366       .  A
N1143      C1144   1.365       .  A
C1144      C1491   1.485       .  S
C1144      C1145   1.382       .  A
C1145      C1146   1.366       .  A
C1145      H1148   1.082       .  S
C1146      C1147   1.380       .  A
C1146      H1149   1.083       .  S
C1147      C1611   1.483       .  S
N1150      C1154   1.362       .  A
N1150      C1151   1.362       .  A
N1150      C1587   1.445       .  S
C1151      C1707   1.479       .  S
C1151      C1152   1.381       .  A
C1152      C1153   1.368       .  A
C1152      H1155   1.083       .  S
C1153      C1154   1.385       .  A
C1153      H1156   1.082       .  S
C1154      C1560   1.487       .  S
N1157      C1158   1.370       .  A
N1157      C1539   1.459       .  S
C1158      C1467   1.484       .  S
C1159      C1160   1.359       .  A
C1159      H1162   1.082       .  S
C1160      C1161   1.375       .  A
C1160      H1163   1.083       .  S
C1161      C1512   1.467       .  S
N1164      C1165   1.366       .  A
N1164      C1683   1.445       .  S
C1165      C1848   1.489   1_554  S
C1166      C1167   1.364       .  A
C1166      H1169   1.083       .  S
C1167      C1168   1.383       .  A
C1167      H1170   1.083       .  S
C1168      C1656   1.484       .  S
O1171     Zr1183   2.452       .  S
O1171      C1173   1.291       .  A
O1172     Zr1209   2.471       .  S
O1172      C1173   1.295       .  A
C1173      C1395   1.501       .  S
O1174     Zr1186   2.492       .  S
O1174      C1176   1.298       .  A
O1175     Zr1210   2.417       .  S
O1175      C1176   1.285       .  A
C1176      C1419   1.500       .  S
O1177     Zr1186   2.458       .  S
O1177      C1179   1.292       .  A
O1178     Zr1209   2.416       .  S
O1178      C1179   1.286       .  A
C1179      C1443   1.479       .  S
O1180     Zr1183   2.460       .  S
O1180      C1182   1.293       .  A
O1181     Zr1210   2.417       .  S
O1181      C1182   1.285       .  A
C1182      C1368   1.486       .  S
Zr1183     O1184   2.435       .  S
Zr1183     O1185   2.434       .  S
Zr1183     O1189   2.379       .  S
Zr1183     O1190   2.364       .  S
Zr1183     O1213   2.371       .  S
Zr1183     O1215   2.379       .  S
O1184      H1227   0.990       .  S
O1185      H1226   0.990       .  S
O1185      H1230   0.990       .  S
Zr1186     O1187   2.437       .  S
Zr1186     O1188   2.437       .  S
Zr1186     O1190   2.363       .  S
Zr1186     O1189   2.383       .  S
Zr1186     O1214   2.384       .  S
Zr1186     O1216   2.381       .  S
O1187      H1228   0.990       .  S
O1187      H1231   0.990       .  S
O1188      H1221   0.991       .  S
O1189     Zr1209   2.390       .  S
O1190     Zr1210   2.377       .  S
O1190      H1217   0.966       .  S
O1191     Zr1203   2.450       .  S
O1191      C1193   1.289       .  A
O1192     Zr1210   2.421       .  S
O1192      C1193   1.285       .  A
C1193      C1320   1.468       .  S
O1194     Zr1206   2.451       .  S
O1194      C1196   1.291       .  A
O1195     Zr1209   2.447       .  S
O1195      C1196   1.291       .  A
C1196      C1296   1.490       .  S
O1197     Zr1206   2.465       .  S
O1197      C1199   1.292       .  A
O1198     Zr1210   2.424       .  S
O1198      C1199   1.284       .  A
C1199      C1272   1.479       .  S
O1200     Zr1203   2.465       .  S
O1200      C1202   1.291       .  A
O1201     Zr1209   2.432       .  S
O1201      C1202   1.289       .  A
C1202      C1344   1.494       .  S
Zr1203     O1204   2.441       .  S
Zr1203     O1205   2.435       .  S
Zr1203     O1211   2.381       .  S
Zr1203     O1212   2.374       .  S
Zr1203     O1215   2.374       .  S
Zr1203     O1213   2.374       .  S
O1204      H1224   0.990       .  S
O1204      H1229   0.990       .  S
O1205      H1225   0.990       .  S
Zr1206     O1207   2.435       .  S
Zr1206     O1208   2.436       .  S
Zr1206     O1212   2.385       .  S
Zr1206     O1211   2.364       .  S
Zr1206     O1216   2.377       .  S
Zr1206     O1214   2.366       .  S
O1207      H1223   0.990       .  S
O1208      H1222   0.990       .  S
O1208      H1232   0.990       .  S
Zr1209     O1212   2.387       .  S
Zr1209     O1214   2.399       .  S
Zr1209     O1215   2.384       .  S
Zr1210     O1211   2.388       .  S
Zr1210     O1213   2.383       .  S
Zr1210     O1216   2.385       .  S
O1211      H1219   0.966       .  S
O1214      H1218   0.965       .  S
O1215      H1220   0.968       .  S
N1233      C1237   1.359       .  A
N1233      C1234   1.361       .  A
N1233      C1416   1.455       .  S
C1234      C1731   1.477       .  S
C1234      C1235   1.382       .  A
C1235      C1236   1.366       .  A
C1235      H1238   1.082       .  S
C1236      C1237   1.382       .  A
C1237      C1440   1.463       .  S
N1240      C1244   1.369       .  A
N1240      C1241   1.366       .  A
N1240      C1299   1.451       .  S
C1241      C1275   1.483       .  S
C1241      C1242   1.379       .  A
C1242      C1243   1.367       .  A
C1242      H1245   1.083       .  S
C1243      C1244   1.383       .  A
C1243      H1246   1.082       .  S
C1244      C1488   1.488       .  S
N1247      C1251   1.372       .  A
N1247      C1248   1.372       .  A
N1247      C1392   1.459       .  S
C1248      C1464   1.486       .  S
C1248      C1249   1.380       .  A
C1249      C1250   1.362       .  A
C1249      H1252   1.083       .  S
C1250      C1251   1.382       .  A
C1250      H1253   1.083       .  S
C1251      C1371   1.489       .  S
N1254      C1258   1.368       .  A
N1254      C1255   1.367       .  A
N1254      C1347   1.454       .  S
C1255      C1323   1.479       .  S
C1255      C1256   1.380       .  A
C1256      C1257   1.365       .  A
C1256      H1259   1.083       .  S
C1257      C1258   1.381       .  A
C1257      H1260   1.083       .  S
C1258      C1923   1.483       .  S
C1261      C1262   1.398       .  A
C1261      C1266   1.404       .  A
C1261      H1277   1.083       .  S
C1262      C1263   1.403       .  A
C1262      H1278   1.084       .  S
C1263      C1273   1.403       .  A
C1263      C1264   1.412       .  A
C1264      C1270   1.412       .  A
C1264      C1265   1.415       .  A
C1265      C1267   1.413       .  A
C1265      C1266   1.411       .  A
C1266      C1274   1.403       .  A
C1267      C1276   1.411       .  A
C1267      C1268   1.405       .  A
C1268      C1269   1.404       .  A
C1268      H1279   1.083       .  S
C1269      C1270   1.406       .  A
C1269      H1280   1.083       .  S
C1270      C1271   1.411       .  A
C1271      C1272   1.410       .  A
C1271      H1281   1.084       .  S
C1272      C1273   1.403       .  A
C1273      H1282   1.085       .  S
C1274      C1275   1.406       .  A
C1274      H1283   1.085       .  S
C1275      C1276   1.406       .  A
C1276      H1284   1.084       .  S
C1285      C1290   1.404       .  A
C1285      H1301   1.084       .  S
C1286      C1287   1.404       .  A
C1287      C1297   1.412       .  A
C1287      C1288   1.413       .  A
C1288      C1294   1.409       .  A
C1288      C1289   1.416       .  A
C1289      C1291   1.413       .  A
C1290      C1298   1.405       .  A
C1291      C1300   1.408       .  A
C1291      C1292   1.404       .  A
C1292      C1293   1.401       .  A
C1292      H1303   1.083       .  S
C1293      C1294   1.404       .  A
C1293      H1304   1.084       .  S
C1294      C1295   1.404       .  A
C1295      C1296   1.409       .  A
C1295      H1305   1.084       .  S
C1296      C1297   1.410       .  A
C1297      H1306   1.083       .  S
C1298      C1299   1.409       .  A
C1298      H1307   1.083       .  S
C1300      H1308   1.083       .  S
C1309      C1310   1.396       .  A
C1309      C1314   1.403       .  A
C1309      H1325   1.084       .  S
C1310      C1311   1.401       .  A
C1310      H1326   1.084       .  S
C1311      C1321   1.399       .  A
C1311      C1312   1.413       .  A
C1312      C1318   1.412       .  A
C1312      C1313   1.412       .  A
C1313      C1315   1.414       .  A
C1313      C1314   1.410       .  A
C1314      C1322   1.397       .  A
C1315      C1324   1.410       .  A
C1315      C1316   1.405       .  A
C1316      C1317   1.403       .  A
C1316      H1327   1.083       .  S
C1317      C1318   1.405       .  A
C1317      H1328   1.084       .  S
C1318      C1319   1.407       .  A
C1319      C1320   1.406       .  A
C1319      H1329   1.084       .  S
C1320      C1321   1.401       .  A
C1321      H1330   1.085       .  S
C1322      C1323   1.404       .  A
C1322      H1331   1.085       .  S
C1323      C1324   1.406       .  A
C1324      H1332   1.084       .  S
C1333      C1334   1.404       .  A
C1333      C1338   1.405       .  A
C1333      H1349   1.083       .  S
C1334      C1335   1.406       .  A
C1334      H1350   1.083       .  S
C1335      C1345   1.412       .  A
C1335      C1336   1.412       .  A
C1336      C1342   1.410       .  A
C1336      C1337   1.417       .  A
C1337      C1338   1.411       .  A
C1339      C1348   1.407       .  A
C1339      C1340   1.404       .  A
C1340      H1351   1.084       .  S
C1341      C1342   1.403       .  A
C1342      C1343   1.405       .  A
C1343      C1344   1.409       .  A
C1343      H1353   1.083       .  S
C1344      C1345   1.412       .  A
C1345      H1354   1.084       .  S
C1346      C1347   1.410       .  A
C1346      H1355   1.082       .  S
C1347      C1348   1.411       .  A
C1348      H1356   1.081       .  S
C1357      C1358   1.403       .  A
C1357      C1362   1.404       .  A
C1357      H1373   1.083       .  S
C1358      C1359   1.405       .  A
C1358      H1374   1.083       .  S
C1359      C1369   1.407       .  A
C1359      C1360   1.410       .  A
C1360      C1366   1.413       .  A
C1360      C1361   1.415       .  A
C1361      C1363   1.409       .  A
C1361      C1362   1.414       .  A
C1362      C1370   1.412       .  A
C1363      C1372   1.401       .  A
C1363      C1364   1.405       .  A
C1364      C1365   1.398       .  A
C1364      H1375   1.084       .  S
C1365      C1366   1.403       .  A
C1365      H1376   1.084       .  S
C1366      C1367   1.404       .  A
C1367      C1368   1.406       .  A
C1367      H1377   1.084       .  S
C1368      C1369   1.411       .  A
C1369      H1378   1.084       .  S
C1370      C1371   1.407       .  A
C1370      H1379   1.084       .  S
C1371      C1372   1.410       .  A
C1372      H1380   1.085       .  S
C1381      C1382   1.400       .  A
C1381      C1386   1.404       .  A
C1381      H1397   1.083       .  S
C1382      C1383   1.403       .  A
C1382      H1398   1.083       .  S
C1383      C1393   1.408       .  A
C1383      C1384   1.412       .  A
C1384      C1385   1.421       .  A
C1385      C1387   1.413       .  A
C1385      C1386   1.410       .  A
C1386      C1394   1.407       .  A
C1387      C1396   1.418       .  A
C1387      C1388   1.407       .  A
C1389      C1390   1.406       .  A
C1389      H1400   1.083       .  S
C1390      C1391   1.413       .  A
C1391      C1392   1.413       .  A
C1391      H1401   1.082       .  S
C1393      H1402   1.083       .  S
C1394      C1395   1.410       .  A
C1394      H1403   1.084       .  S
C1395      C1396   1.413       .  A
C1396      H1404   1.084       .  S
C1405      C1406   1.399       .  A
C1405      C1410   1.403       .  A
C1405      H1421   1.083       .  S
C1406      C1407   1.403       .  A
C1406      H1422   1.083       .  S
C1407      C1417   1.403       .  A
C1407      C1408   1.409       .  A
C1408      C1414   1.412       .  A
C1408      C1409   1.418       .  A
C1409      C1411   1.409       .  A
C1409      C1410   1.413       .  A
C1410      C1418   1.408       .  A
C1411      C1420   1.411       .  A
C1411      C1412   1.408       .  A
C1412      C1413   1.405       .  A
C1412      H1423   1.084       .  S
C1413      C1414   1.406       .  A
C1413      H1424   1.084       .  S
C1414      C1415   1.412       .  A
C1415      C1416   1.414       .  A
C1415      H1425   1.081       .  S
C1416      C1417   1.408       .  A
C1417      H1426   1.083       .  S
C1418      C1419   1.407       .  A
C1418      H1427   1.084       .  S
C1419      C1420   1.417       .  A
C1420      H1428   1.084       .  S
C1429      C1430   1.396       .  A
C1429      C1434   1.402       .  A
C1429      H1445   1.084       .  S
C1430      C1431   1.403       .  A
C1430      H1446   1.084       .  S
C1431      C1441   1.397       .  A
C1431      C1432   1.408       .  A
C1432      C1438   1.412       .  A
C1432      C1433   1.411       .  A
C1433      C1435   1.410       .  A
C1433      C1434   1.412       .  A
C1434      C1442   1.401       .  A
C1435      C1444   1.403       .  A
C1435      C1436   1.404       .  A
C1436      H1447   1.084       .  S
C1437      H1448   1.084       .  S
C1439      C1440   1.402   1_554  A
C1439      H1449   1.085       .  S
C1441      H1450   1.083       .  S
C1442      C1443   1.405       .  A
C1442      H1451   1.084       .  S
C1443      C1444   1.408       .  A
C1444      H1452   1.084       .  S
C1453      C1454   1.401       .  A
C1453      C1458   1.405   1_556  A
C1453      H1469   1.084       .  S
C1454      C1455   1.404       .  A
C1454      H1470   1.083       .  S
C1455      C1465   1.410       .  A
C1455      C1456   1.414       .  A
C1456      C1462   1.410       .  A
C1456      C1457   1.418   1_556  A
C1457      C1459   1.414       .  A
C1457      C1458   1.409       .  A
C1458      C1466   1.405       .  A
C1459      C1468   1.411       .  A
C1460      H1471   1.083       .  S
C1461      C1462   1.405   1_554  A
C1462      C1463   1.407       .  A
C1463      C1464   1.410       .  A
C1463      H1473   1.084       .  S
C1464      C1465   1.406       .  A
C1465      H1474   1.084       .  S
C1466      C1467   1.410       .  A
C1466      H1475   1.085       .  S
C1467      C1468   1.406       .  A
C1477      C1478   1.400       .  A
C1477      C1482   1.403       .  A
C1477      H1493   1.084       .  S
C1478      C1479   1.405       .  A
C1478      H1494   1.084       .  S
C1480      C1486   1.415       .  A
C1480      C1481   1.417   1_556  A
C1481      C1483   1.408       .  A
C1482      C1490   1.408       .  A
C1483      C1492   1.402       .  A
C1483      C1484   1.404       .  A
C1484      C1485   1.400       .  A
C1484      H1495   1.084       .  S
C1485      C1486   1.403   1_554  A
C1485      H1496   1.083       .  S
C1486      C1487   1.410       .  A
C1487      C1488   1.404       .  A
C1487      H1497   1.084       .  S
C1488      C1489   1.412       .  A
C1490      C1491   1.406       .  A
C1490      H1499   1.084       .  S
C1492      H1500   1.084       .  S
C1501      C1502   1.398       .  A
C1501      C1506   1.403       .  A
C1501      H1517   1.084       .  S
C1502      C1503   1.402       .  A
C1502      H1518   1.084       .  S
C1503      C1513   1.403       .  A
C1503      C1504   1.415       .  A
C1504      C1510   1.410       .  A
C1504      C1505   1.410       .  A
C1505      C1507   1.414       .  A
C1505      C1506   1.410       .  A
C1506      C1514   1.399       .  A
C1507      C1516   1.404       .  A
C1507      C1508   1.403       .  A
C1508      C1509   1.398       .  A
C1508      H1519   1.084       .  S
C1509      C1510   1.404       .  A
C1509      H1520   1.084       .  S
C1510      C1511   1.399       .  A
C1511      C1512   1.404       .  A
C1511      H1521   1.085       .  S
C1512      C1513   1.400       .  A
C1513      H1522   1.084       .  S
C1514      C1515   1.405       .  A
C1514      H1523   1.085       .  S
C1515      C1516   1.404       .  A
C1516      H1524   1.084       .  S
C1525      C1526   1.402       .  A
C1525      C1530   1.404       .  A
C1525      H1541   1.083       .  S
C1526      C1527   1.405       .  A
C1526      H1542   1.083       .  S
C1527      C1537   1.407       .  A
C1527      C1528   1.410       .  A
C1528      C1534   1.414       .  A
C1528      C1529   1.421       .  A
C1529      C1531   1.409   1_556  A
C1529      C1530   1.413       .  A
C1530      C1538   1.412       .  A
C1531      C1540   1.412       .  A
C1531      C1532   1.407       .  A
C1532      C1533   1.405       .  A
C1532      H1543   1.084       .  S
C1533      C1534   1.406   1_554  A
C1533      H1544   1.084       .  S
C1534      C1535   1.417       .  A
C1535      C1536   1.412       .  A
C1535      H1545   1.084       .  S
C1536      C1537   1.410       .  A
C1537      H1546   1.084       .  S
C1538      C1539   1.410   1_556  A
C1538      H1547   1.083       .  S
C1539      C1540   1.415       .  A
C1549      C1550   1.397       .  A
C1549      C1554   1.402       .  A
C1549      H1565   1.083       .  S
C1550      C1551   1.403       .  A
C1550      H1566   1.084       .  S
C1551      C1561   1.398       .  A
C1551      C1552   1.409       .  A
C1552      C1558   1.413       .  A
C1552      C1553   1.413       .  A
C1553      C1555   1.410       .  A
C1553      C1554   1.413       .  A
C1554      C1562   1.403       .  A
C1555      C1564   1.407       .  A
C1555      C1556   1.406       .  A
C1556      C1557   1.403       .  A
C1556      H1567   1.084       .  S
C1557      C1558   1.405       .  A
C1557      H1568   1.084       .  S
C1558      C1559   1.409       .  A
C1559      C1560   1.409       .  A
C1559      H1569   1.083       .  S
C1560      C1561   1.406       .  A
C1561      H1570   1.084       .  S
C1562      C1563   1.405       .  A
C1562      H1571   1.084       .  S
C1563      C1564   1.413       .  A
C1564      H1572   1.084       .  S
C1573      C1574   1.401       .  A
C1573      C1578   1.405       .  A
C1573      H1589   1.084       .  S
C1574      C1575   1.405       .  A
C1574      H1590   1.083       .  S
C1575      C1585   1.408   1_554  A
C1575      C1576   1.413       .  A
C1576      C1582   1.411   1_554  A
C1576      C1577   1.414       .  A
C1577      C1579   1.410       .  A
C1577      C1578   1.409       .  A
C1578      C1586   1.405       .  A
C1579      C1580   1.404   1_554  A
C1580      C1581   1.399       .  A
C1581      C1582   1.404       .  A
C1581      H1592   1.084       .  S
C1582      C1583   1.402       .  A
C1583      C1584   1.406       .  A
C1583      H1593   1.085       .  S
C1584      C1585   1.407       .  A
C1585      H1594   1.084       .  S
C1586      H1595   1.081       .  S
C1587      C1588   1.405       .  A
C1588      H1596   1.083       .  S
C1597      C1598   1.399       .  A
C1597      C1602   1.404       .  A
C1597      H1613   1.084       .  S
C1598      C1599   1.403       .  A
C1598      H1614   1.084       .  S
C1599      C1609   1.407       .  A
C1599      C1600   1.414       .  A
C1600      C1606   1.409       .  A
C1600      C1601   1.414       .  A
C1601      C1603   1.415       .  A
C1601      C1602   1.409       .  A
C1602      C1610   1.400       .  A
C1603      C1612   1.410       .  A
C1603      C1604   1.403       .  A
C1604      C1605   1.401       .  A
C1604      H1615   1.083       .  S
C1605      C1606   1.405       .  A
C1605      H1616   1.081       .  S
C1606      C1607   1.404       .  A
C1607      C1608   1.411       .  A
C1607      H1617   1.084       .  S
C1608      C1609   1.406       .  A
C1609      H1618   1.084       .  S
C1610      C1611   1.407       .  A
C1610      H1619   1.085       .  S
C1611      C1612   1.405       .  A
C1612      H1620   1.084       .  S
C1621      C1622   1.398       .  A
C1621      C1626   1.403       .  A
C1621      H1637   1.084       .  S
C1622      C1623   1.403       .  A
C1622      H1638   1.084       .  S
C1623      C1633   1.401       .  A
C1623      C1624   1.411       .  A
C1624      C1630   1.413       .  A
C1624      C1625   1.414   1_556  A
C1625      C1627   1.410       .  A
C1625      C1626   1.411   1_554  A
C1626      C1634   1.403   1_556  A
C1627      C1636   1.408       .  A
C1627      C1628   1.405       .  A
C1628      C1629   1.403       .  A
C1628      H1639   1.083       .  S
C1629      C1630   1.405   1_554  A
C1629      H1640   1.084       .  S
C1630      C1631   1.409       .  A
C1631      C1632   1.406       .  A
C1631      H1641   1.084       .  S
C1632      C1633   1.405       .  A
C1633      H1642   1.085       .  S
C1634      C1635   1.407       .  A
C1635      C1636   1.411       .  A
C1636      H1644   1.082       .  S
C1645      C1646   1.400       .  A
C1645      C1650   1.404       .  A
C1645      H1661   1.082       .  S
C1646      C1647   1.403       .  A
C1646      H1662   1.083       .  S
C1647      C1657   1.409       .  A
C1647      C1648   1.415       .  A
C1648      C1654   1.408       .  A
C1648      C1649   1.412       .  A
C1649      C1651   1.413       .  A
C1649      C1650   1.408       .  A
C1650      C1658   1.401       .  A
C1651      C1660   1.404       .  A
C1651      C1652   1.403       .  A
C1652      C1653   1.398       .  A
C1652      H1663   1.084       .  S
C1653      C1654   1.404       .  A
C1653      H1664   1.084       .  S
C1654      C1655   1.398       .  A
C1655      C1656   1.408       .  A
C1655      H1665   1.085       .  S
C1656      C1657   1.406       .  A
C1657      H1666   1.084       .  S
C1658      C1659   1.410       .  A
C1658      H1667   1.084       .  S
C1659      C1660   1.407       .  A
C1660      H1668   1.084       .  S
C1669      C1670   1.398       .  A
C1669      C1674   1.404       .  A
C1669      H1685   1.083       .  S
C1670      C1671   1.402       .  A
C1670      H1686   1.084       .  S
C1671      C1681   1.400       .  A
C1671      C1672   1.412       .  A
C1672      C1678   1.413       .  A
C1672      C1673   1.412       .  A
C1673      C1675   1.411       .  A
C1673      C1674   1.411       .  A
C1674      C1682   1.403       .  A
C1675      C1684   1.406   1_556  A
C1675      C1676   1.405       .  A
C1676      C1677   1.401       .  A
C1676      H1687   1.083   1_556  S
C1677      C1678   1.403       .  A
C1677      H1688   1.084       .  S
C1678      C1679   1.405       .  A
C1679      C1680   1.404       .  A
C1679      H1689   1.084       .  S
C1680      C1681   1.403       .  A
C1681      H1690   1.085       .  S
C1682      C1683   1.407   1_556  A
C1682      H1691   1.084       .  S
C1683      C1684   1.408       .  A
C1684      H1692   1.083       .  S
C1693      C1694   1.397   1_554  A
C1693      H1709   1.083       .  S
C1694      C1695   1.403       .  A
C1694      H1710   1.083       .  S
C1695      C1705   1.398       .  A
C1696      C1702   1.414       .  A
C1696      C1697   1.412       .  A
C1697      C1699   1.409       .  A
C1697      C1698   1.415       .  A
C1698      C1706   1.409       .  A
C1699      C1708   1.398       .  A
C1699      C1700   1.404       .  A
C1700      C1701   1.398       .  A
C1700      H1711   1.084       .  S
C1701      C1702   1.402       .  A
C1701      H1712   1.084       .  S
C1702      C1703   1.402       .  A
C1703      H1713   1.084       .  S
C1704      C1705   1.403       .  A
C1705      H1714   1.085       .  S
C1706      C1707   1.405       .  A
C1707      C1708   1.405       .  A
C1708      H1716   1.085       .  S
C1717      C1718   1.397       .  A
C1717      C1722   1.402       .  A
C1717      H1733   1.083       .  S
C1718      C1719   1.402       .  A
C1718      H1734   1.084       .  S
C1719      C1729   1.398       .  A
C1719      C1720   1.410       .  A
C1720      C1726   1.413       .  A
C1720      C1721   1.411       .  A
C1721      C1723   1.410       .  A
C1721      C1722   1.413       .  A
C1722      C1730   1.402       .  A
C1723      C1732   1.401       .  A
C1723      C1724   1.404       .  A
C1724      C1725   1.401       .  A
C1724      H1735   1.084       .  S
C1725      C1726   1.405       .  A
C1725      H1736   1.083       .  S
C1726      C1727   1.408       .  A
C1727      C1728   1.408       .  A
C1727      H1737   1.084       .  S
C1728      C1729   1.403       .  A
C1729      H1738   1.084       .  S
C1730      C1731   1.404       .  A
C1730      H1739   1.084       .  S
C1731      C1732   1.406       .  A
C1732      H1740   1.084       .  S
C1741      C1742   1.400       .  A
C1741      C1746   1.405       .  A
C1741      H1757   1.084       .  S
C1742      C1743   1.404       .  A
C1742      H1758   1.084       .  S
C1743      C1753   1.404       .  A
C1743      C1744   1.411       .  A
C1744      C1750   1.411       .  A
C1744      C1745   1.415       .  A
C1745      C1747   1.412       .  A
C1745      C1746   1.411       .  A
C1746      C1754   1.405       .  A
C1747      C1756   1.408       .  A
C1747      C1748   1.405       .  A
C1748      C1749   1.401       .  A
C1748      H1759   1.083       .  S
C1749      C1750   1.404       .  A
C1749      H1760   1.084       .  S
C1750      C1751   1.406       .  A
C1751      C1752   1.410       .  A
C1751      H1761   1.082       .  S
C1752      C1753   1.408       .  A
C1754      C1755   1.409       .  A
C1754      H1763   1.085       .  S
C1755      C1756   1.408       .  A
C1756      H1764   1.084       .  S
C1765      C1766   1.400       .  A
C1765      C1770   1.404       .  A
C1765      H1781   1.084       .  S
C1766      C1767   1.405       .  A
C1766      H1782   1.084       .  S
C1767      C1777   1.403       .  A
C1767      C1768   1.410       .  A
C1768      C1774   1.413       .  A
C1768      C1769   1.415       .  A
C1769      C1771   1.412       .  A
C1769      C1770   1.412       .  A
C1770      C1778   1.406       .  A
C1771      C1780   1.405       .  A
C1771      C1772   1.403       .  A
C1772      C1773   1.400       .  A
C1772      H1783   1.083       .  S
C1773      C1774   1.403       .  A
C1773      H1784   1.083       .  S
C1774      C1775   1.407       .  A
C1775      C1776   1.405       .  A
C1775      H1785   1.083       .  S
C1776      C1777   1.409       .  A
C1777      H1786   1.084       .  S
C1778      C1779   1.409       .  A
C1778      H1787   1.085       .  S
C1779      C1780   1.404       .  A
C1780      H1788   1.084       .  S
C1789      C1790   1.399       .  A
C1789      C1794   1.403       .  A
C1789      H1805   1.084       .  S
C1790      C1791   1.404       .  A
C1790      H1806   1.083       .  S
C1791      C1801   1.407       .  A
C1791      C1792   1.412       .  A
C1792      C1798   1.411       .  A
C1792      C1793   1.417       .  A
C1793      C1795   1.411       .  A
C1793      C1794   1.410       .  A
C1794      C1802   1.404       .  A
C1795      C1796   1.405       .  A
C1796      C1797   1.404       .  A
C1797      C1798   1.407       .  A
C1797      H1808   1.083       .  S
C1798      C1799   1.412       .  A
C1799      C1800   1.415       .  A
C1799      H1809   1.084       .  S
C1800      C1801   1.408       .  A
C1801      H1810   1.084       .  S
C1802      H1811   1.083       .  S
C1803      C1804   1.406       .  A
C1804      H1812   1.080       .  S
C1813      C1814   1.400       .  A
C1813      C1818   1.404       .  A
C1813      H1829   1.084       .  S
C1814      C1815   1.405       .  A
C1814      H1830   1.083       .  S
C1815      C1825   1.402       .  A
C1815      C1816   1.411       .  A
C1816      C1822   1.414       .  A
C1816      C1817   1.408       .  A
C1817      C1819   1.411       .  A
C1817      C1818   1.415       .  A
C1818      C1826   1.406       .  A
C1819      C1828   1.394       .  A
C1819      C1820   1.402       .  A
C1820      C1821   1.394       .  A
C1820      H1831   1.084       .  S
C1821      C1822   1.401       .  A
C1821      H1832   1.084       .  S
C1822      C1823   1.398       .  A
C1823      C1824   1.398       .  A
C1823      H1833   1.085       .  S
C1824      C1825   1.408       .  A
C1825      H1834   1.083       .  S
C1826      C1827   1.404       .  A
C1826      H1835   1.084       .  S
C1827      C1828   1.401       .  A
C1828      H1836   1.085       .  S
C1837      C1838   1.401       .  A
C1837      C1842   1.404       .  A
C1837      H1853   1.083       .  S
C1838      C1839   1.404       .  A
C1838      H1854   1.083       .  S
C1839      C1849   1.410       .  A
C1839      C1840   1.413       .  A
C1840      C1846   1.409       .  A
C1840      C1841   1.414       .  A
C1841      C1843   1.412       .  A
C1841      C1842   1.410       .  A
C1842      C1850   1.405       .  A
C1843      C1852   1.405       .  A
C1844      C1845   1.399       .  A
C1844      H1855   1.084       .  S
C1845      H1856   1.084       .  S
C1846      C1847   1.403       .  A
C1847      C1848   1.410       .  A
C1848      C1849   1.406       .  A
C1849      H1858   1.084       .  S
C1850      C1851   1.409       .  A
C1850      H1859   1.084       .  S
C1851      C1852   1.407       .  A
C1861      C1862   1.402       .  A
C1861      C1866   1.406       .  A
C1861      H1877   1.084   1_565  S
C1862      C1863   1.403       .  A
C1862      H1878   1.084       .  S
C1863      C1873   1.408       .  A
C1863      C1864   1.414       .  A
C1864      C1870   1.409       .  A
C1864      C1865   1.412       .  A
C1865      C1867   1.412       .  A
C1865      C1866   1.410       .  A
C1866      C1874   1.405       .  A
C1867      C1876   1.402       .  A
C1867      C1868   1.402       .  A
C1868      C1869   1.397       .  A
C1868      H1879   1.084       .  S
C1869      C1870   1.403       .  A
C1869      H1880   1.084       .  S
C1870      C1871   1.399       .  A
C1871      C1872   1.407       .  A
C1871      H1881   1.085       .  S
C1872      C1873   1.405       .  A
C1873      H1882   1.084       .  S
C1874      C1875   1.412       .  A
C1874      H1883   1.084   1_565  S
C1875      C1876   1.406       .  A
C1876      H1884   1.084       .  S
C1885      C1886   1.404       .  A
C1885      C1890   1.405       .  A
C1885      H1901   1.084       .  S
C1886      C1887   1.406       .  A
C1886      H1902   1.083       .  S
C1887      C1897   1.413       .  A
C1887      C1888   1.412       .  A
C1888      C1894   1.410       .  A
C1888      C1889   1.414       .  A
C1889      C1891   1.410       .  A
C1889      C1890   1.412       .  A
C1890      C1898   1.410       .  A
C1891      C1900   1.397       .  A
C1891      C1892   1.402       .  A
C1892      C1893   1.395       .  A
C1892      H1903   1.084       .  S
C1893      C1894   1.403       .  A
C1893      H1904   1.084       .  S
C1894      C1895   1.398       .  A
C1895      C1896   1.409       .  A
C1895      H1905   1.084       .  S
C1896      C1897   1.411       .  A
C1897      H1906   1.084       .  S
C1898      C1899   1.407       .  A
C1898      H1907   1.083       .  S
C1899      C1900   1.407       .  A
C1900      H1908   1.084       .  S
C1909      C1910   1.404       .  A
C1909      C1914   1.404       .  A
C1909      H1925   1.084       .  S
C1910      C1911   1.407       .  A
C1911      C1921   1.411       .  A
C1911      C1912   1.410       .  A
C1912      C1918   1.414       .  A
C1912      C1913   1.418       .  A
C1913      C1915   1.410       .  A
C1913      C1914   1.414       .  A
C1914      C1922   1.411       .  A
C1915      C1924   1.405       .  A
C1915      C1916   1.404       .  A
C1916      C1917   1.400       .  A
C1916      H1927   1.083       .  S
C1917      C1918   1.403       .  A
C1917      H1928   1.083       .  S
C1918      C1919   1.410       .  A
C1919      C1920   1.405       .  A
C1919      H1929   1.084       .  S
C1920      C1921   1.415       .  A
C1922      C1923   1.406       .  A
C1922      H1931   1.084       .  S
C1923      C1924   1.407       .  A
C1924      H1932   1.085       .  S
C1933      C1934   1.402       .  A
C1933      C1938   1.404       .  A
C1933      H1949   1.083       .  S
C1934      C1935   1.405       .  A
C1934      H1950   1.084       .  S
C1935      C1945   1.404       .  A
C1935      C1936   1.410       .  A
C1936      C1942   1.413       .  A
C1936      C1937   1.410       .  A
C1937      C1939   1.410       .  A
C1937      C1938   1.414       .  A
C1938      C1946   1.409       .  A
C1939      C1948   1.394       .  A
C1939      C1940   1.402       .  A
C1940      C1941   1.395       .  A
C1940      H1951   1.084       .  S
C1941      C1942   1.401       .  A
C1941      H1952   1.084       .  S
C1942      C1943   1.398       .  A
C1943      C1944   1.403       .  A
C1943      H1953   1.085       .  S
C1944      C1945   1.409       .  A
C1945      H1954   1.084       .  S
C1946      C1947   1.405       .  A
C1946      H1955   1.084       .  S
C1947      C1948   1.402       .  A
C1948      H1956   1.085       .  S
C1957      C1958   1.404       .  A
C1957      C1962   1.405       .  A
C1957      H1973   1.084       .  S
C1958      C1959   1.406       .  A
C1958      H1974   1.084       .  S
C1959      C1969   1.411       .  A
C1959      C1960   1.410       .  A
C1960      C1966   1.411       .  A
C1960      C1961   1.422       .  A
C1961      C1963   1.412       .  A
C1961      C1962   1.411       .  A
C1962      C1970   1.411       .  A
C1963      C1972   1.413       .  A
C1963      C1964   1.405       .  A
C1964      C1965   1.404       .  A
C1964      H1975   1.083       .  S
C1965      C1966   1.405       .  A
C1965      H1976   1.083       .  S
C1966      C1967   1.414       .  A
C1967      C1968   1.413       .  A
C1967      H1977   1.082       .  S
C1968      C1969   1.416       .  A
C1969      H1978   1.080       .  S
C1970      C1971   1.412       .  A
C1970      H1979   1.084       .  S
C1971      C1972   1.410       .  A
C1972      H1980   1.084       .  S
