geometry optimzed in LAMMPS
_audit_creation_date              2020-12-01 
_audit_creation_method            'lammps2cif' 
_symmetry_space_group_name_H-M    'P1' 
_symmetry_Int_Tables_number       1 
_symmetry_cell_setting            triclinic 
loop_ 
_symmetry_equiv_pos_as_xyz 
  x,y,z 
_cell_length_a                    27.52027843 
_cell_length_b                    27.637435972489943 
_cell_length_c                    25.973320760563702 
_cell_angle_alpha                 87.8023585081192 
_cell_angle_beta                  88.97647729427236 
_cell_angle_gamma                 119.76844413051137 
loop_ 
_atom_site_label 
_atom_site_type_symbol 
_atom_site_fract_x 
_atom_site_fract_y 
_atom_site_fract_z 
_atom_site_charge 
Fe1        Fe  0.20622752  0.42143040  0.24612189     1.65800
Fe2        Fe  0.20291526  0.29598940  0.24457594     1.73200
Fe3        Fe  0.08018934  0.29865758  0.25666981     1.54400
O4          O  0.07880112  0.34579697  0.31611555    -0.82700
O5          O  0.14843291  0.24066911  0.19375634    -0.81100
O6          O  0.15627073  0.42837188  0.30333509    -0.85300
O7          O  0.15775101  0.42879113  0.18957380    -0.80100
O8          O  0.07551313  0.23995744  0.31171520    -0.81900
O9          O  0.25343470  0.34364036  0.18201518    -0.84600
C10         C  0.10574443  0.40076855  0.18170778     0.96100
C11         C  0.10904909  0.39656205  0.32649054     1.03600
O12         O  0.16306253  0.33868555  0.24907920    -1.13600
O13         O  0.26395014  0.34591768  0.29399382    -0.76000
O14         O  0.26038618  0.42413367  0.30240402    -0.79500
O15         O  0.07333872  0.35290298  0.20356231    -0.80200
C16         C  0.28155910  0.39330925  0.31281593     0.95000
O17         O  0.26256168  0.42779299  0.18808975    -0.78200
O18         O  0.15734119  0.24193721  0.30671524    -0.83400
C19         C  0.09864751  0.22439260  0.18075464     0.97700
C20         C  0.10799257  0.22226244  0.32621976     1.03600
O21         O  0.06957140  0.24466974  0.19859504    -0.79000
C22         C  0.27604628  0.39486860  0.16758370     1.01900
C23         C  0.00615811  0.01362417  0.07653040    -0.03600
C24         C  0.98671023  0.49233163  0.42247566    -0.03600
Fe25       Fe  0.29314336  0.08071904  0.76902445     1.65800
Fe26       Fe  0.29495781  0.20421262  0.74962506     1.73200
Fe27       Fe  0.41851860  0.20344517  0.75390473     1.54400
O28         O  0.42568874  0.15543299  0.81295817    -0.82700
O29         O  0.35055102  0.26463677  0.69618836    -0.81100
O30         O  0.34504269  0.07575358  0.82310763    -0.85300
O31         O  0.33940842  0.07086866  0.71068368    -0.80100
O32         O  0.42218995  0.25953597  0.80711603    -0.81900
O33         O  0.24859113  0.15636170  0.69047395    -0.84600
C34         C  0.38827166  0.10080031  0.68964807     0.96100
C35         C  0.39578030  0.10675365  0.83372392     1.03600
O36         O  0.33587268  0.16291864  0.75755568    -1.13600
O37         O  0.23132897  0.15223770  0.80252967    -0.76000
O38         O  0.24304878  0.08156938  0.82911012    -0.79500
O39         O  0.42119679  0.15112048  0.70040517    -0.80200
C40         C  0.21695018  0.10855787  0.83110885     0.95000
O41         O  0.23322541  0.07197210  0.71683227    -0.78200
O42         O  0.33874329  0.25590778  0.80733066    -0.83400
C43         C  0.40040062  0.28227379  0.67983037     0.97700
C44         C  0.38864932  0.27592520  0.82233945     1.03600
O45         O  0.42840129  0.25939995  0.69367063    -0.79000
C46         C  0.22197557  0.10350911  0.68859904     1.01900
C47         C  0.49650132  0.98372249  0.92675349    -0.03600
C48         C  0.01312150  0.01117103  0.57754560    -0.03600
C49         C  0.44616282  0.33262071  0.89464083    -0.14400
C50         C  0.41031325  0.32483383  0.85425889     0.07700
C51         C  0.39998669  0.36790926  0.83931782    -0.14400
C52         C  0.42746160  0.41918736  0.86175676    -0.14400
C53         C  0.46497986  0.42889700  0.90190129     0.07700
C54         C  0.47172728  0.38331350  0.91924801    -0.14400
H55         H  0.45516124  0.29998971  0.90647316     0.11700
H56         H  0.37317553  0.36320239  0.80758109     0.11700
H57         H  0.42012672  0.45130816  0.84532717     0.11700
H58         H  0.00263202  0.39313231  0.95089147     0.11700
C59         C  0.15067303  0.04488370  0.90374700    -0.14400
C60         C  0.16468706  0.08609742  0.86390794     0.07700
C61         C  0.12454683  0.10091052  0.85021583    -0.14400
C62         C  0.07017699  0.07174050  0.87171388    -0.14400
C63         C  0.05396985  0.02722558  0.90901704     0.07700
C64         C  0.09637368  0.01674910  0.92689357    -0.14400
H65         H  0.18084573  0.03273671  0.91543936     0.11700
H66         H  0.13375822  0.13246267  0.81968934     0.11700
H67         H  0.05949421  0.44635378  0.87045618     0.11700
H68         H  0.08605834  0.98337918  0.95576978     0.11700
C69         C  0.48017901  0.10173637  0.85757922    -0.14400
C70         C  0.42318166  0.08326460  0.86708636     0.07700
C71         C  0.39234422  0.03721521  0.90206282    -0.14400
C72         C  0.41749689  0.00845222  0.92454356    -0.14400
C73         C  0.47308820  0.02279986  0.91008472     0.07700
C74         C  0.50453271  0.07183277  0.87798947    -0.14400
H75         H  0.50524566  0.13706191  0.83085488     0.11700
H76         H  0.34827727  0.02211813  0.91043341     0.11700
H77         H  0.40173769  0.48780547  0.95217377     0.11700
H78         H  0.97964773  0.07743081  0.95562999     0.11700
C79         C  0.44318596  0.34348709  0.59772174    -0.14400
C80         C  0.42955013  0.33689290  0.65081740     0.07700
C81         C  0.44498277  0.38429190  0.67871092    -0.14400
C82         C  0.47243449  0.43737294  0.65429495    -0.14400
C83         C  0.48410628  0.44527266  0.60045628     0.07700
C84         C  0.47020719  0.39719850  0.57269007    -0.14400
H85         H  0.43252242  0.30732700  0.57569897     0.11700
H86         H  0.43576312  0.38020074  0.71995098     0.11700
H87         H  0.98122441  0.47832546  0.67571220     0.11700
H88         H  0.48016265  0.40052389  0.53184691     0.11700
C89         C  0.11866212  0.08243530  0.58481488    -0.14400
C90         C  0.07119557  0.03087872  0.60184585     0.07700
C91         C  0.07715862  0.00273887  0.64593145    -0.14400
C92         C  0.12735265  0.02492328  0.67150066    -0.14400
C93         C  0.17311030  0.07696090  0.65541722     0.07700
C94         C  0.16851195  0.10526769  0.61147192    -0.14400
H95         H  0.11596895  0.10727331  0.55295153     0.11700
H96         H  0.04246180  0.96473192  0.66310262     0.11700
H97         H  0.12907788  0.00273438  0.70608717     0.11700
H98         H  0.20287242  0.14594246  0.59865029     0.11700
C99         C  0.39918855  0.02036880  0.66811423    -0.14400
C100        C  0.40977437  0.07426037  0.65467409     0.07700
C101        C  0.44746626  0.10447261  0.61318989    -0.14400
C102        C  0.47468968  0.08121950  0.58600521    -0.14400
C103        C  0.46598463  0.02736673  0.60026694     0.07700
C104        C  0.42795114  0.99809255  0.64272348    -0.14400
H105        H  0.37200945  0.99705934  0.70133203     0.11700
H106        H  0.45731886  0.14682520  0.60292115     0.11700
H107        H  0.50534087  0.10725784  0.55603368     0.11700
H108        H  0.39672604  0.45576907  0.60726593     0.11700
C109        C  0.98145536  0.99153865  0.48406448    -0.17500
C110        C  0.02247391  0.01510559  0.51808571    -0.32700
H111        H  0.93350394  0.46293156  0.49738730     0.11500
H112        H  0.53186064  0.06200966  0.50456314     0.12100
C113        C  0.98413772  0.97943762  0.98484361    -0.17500
C114        C  0.01219616  0.02094142  0.01714437    -0.32700
H115        H  0.96898378  0.44175838  0.00194921     0.11500
H116        H  0.52148779  0.05949285  0.00146742     0.12100
C117        C  0.00642936  0.41042739  0.41621605    -0.14400
C118        C  0.02626641  0.46834832  0.41017212     0.07700
C119        C  0.08188349  0.50227271  0.39002774    -0.14400
C120        C  0.11089899  0.47879152  0.36650387    -0.14400
C121        C  0.08606119  0.42068067  0.36383752     0.07700
C122        C  0.03503352  0.38673157  0.39184680    -0.14400
H123        H  0.46562390  0.38009098  0.43740437     0.11700
H124        H  0.04408713  0.94194259  0.47249921     0.11700
H125        H  0.15124335  0.50643942  0.34737855     0.11700
H126        H  0.01541212  0.34167968  0.39226862     0.11700
C127        C  0.34207322  0.45314166  0.38284736    -0.14400
C128        C  0.33148966  0.41451843  0.34501595     0.07700
C129        C  0.37223141  0.39963701  0.33395632    -0.14400
C130        C  0.42272767  0.42335813  0.35904452    -0.14400
C131        C  0.43357912  0.46081386  0.39863965     0.07700
C132        C  0.39216657  0.47566534  0.40944062    -0.14400
H133        H  0.31193442  0.46639463  0.39145192     0.11700
H134        H  0.36648046  0.37183649  0.30345338     0.11700
H135        H  0.45403300  0.41413458  0.34454748     0.11700
H136        H  0.38715334  0.90793308  0.46650126     0.11700
C137        C  0.03529747  0.15422238  0.39286142    -0.14400
C138        C  0.08586725  0.17332343  0.36387209     0.07700
C139        C  0.11175853  0.14065865  0.36576273    -0.14400
C140        C  0.08420549  0.08710158  0.38937071    -0.14400
C141        C  0.02898089  0.06365311  0.41096390     0.07700
C142        C  0.00834976  0.10076064  0.41804717    -0.14400
H143        H  0.01510820  0.17929981  0.39381243     0.12700
H144        H  0.15177674  0.15474844  0.34575143     0.11700
H145        H  0.10586599  0.06352438  0.38800575     0.11700
H146        H  0.47364044  0.07646187  0.43813856     0.11700
C147        C  0.09375875  0.44585991  0.09960657    -0.14400
C148        C  0.08002354  0.42805305  0.15191057     0.07700
C149        C  0.04317065  0.44000377  0.17874875    -0.14400
C150        C  0.02001617  0.46887080  0.15421259    -0.14400
C151        C  0.03031500  0.48437829  0.10095540     0.07700
C152        C  0.06855022  0.47318968  0.07404326    -0.14400
H153        H  0.12341619  0.43824377  0.07860808     0.11700
H154        H  0.03319539  0.42802159  0.21947949     0.11700
H155        H  0.49132984  0.47738330  0.17570663     0.11700
H156        H  0.07988511  0.48614909  0.03374865     0.11700
C157        C  0.34517221  0.47129006  0.10459102    -0.14400
C158        C  0.32391447  0.41796943  0.12913969     0.07700
C159        C  0.35425012  0.38995546  0.12290933    -0.14400
C160        C  0.40845672  0.41797831  0.10076974    -0.14400
C161        C  0.43427849  0.47523157  0.08515120     0.07700
C162        C  0.39897515  0.49858373  0.08051447    -0.14400
H163        H  0.32174521  0.49316547  0.10669951     0.11700
H164        H  0.33819504  0.34783365  0.13913391     0.11700
H165        H  0.43115652  0.39539288  0.09913627     0.11700
H166        H  0.40956485  0.02831221  0.06067003     0.11700
C167        C  0.01670423  0.13457419  0.15757197    -0.14400
C168        C  0.07231253  0.17651052  0.14691483     0.07700
C169        C  0.10429118  0.16758699  0.10971970    -0.14400
C170        C  0.08155826  0.11706331  0.08492820    -0.14400
C171        C  0.02662811  0.07273336  0.09787433     0.07700
C172        C  0.99455145  0.08336915  0.13439134    -0.14400
H173        H  0.99142832  0.13972149  0.18694590     0.11700
H174        H  0.14764242  0.19896548  0.10116059     0.11700
H175        H  0.10857604  0.11104731  0.05829748     0.11700
H176        H  0.45128189  0.04533728  0.15581765     0.11700
Fe177      Fe  0.20698496  0.91846299  0.25389948     1.65800
Fe178      Fe  0.20228158  0.79314915  0.25699393     1.73200
Fe179      Fe  0.08135835  0.79903027  0.25340727     1.54400
O180        O  0.07539204  0.85470163  0.30011875    -0.82700
O181        O  0.15938646  0.74597752  0.19523294    -0.81100
O182        O  0.16143492  0.92120375  0.31803922    -0.85300
O183        O  0.15432093  0.92956119  0.20656142    -0.80100
O184        O  0.07059406  0.74688642  0.31780572    -0.81900
O185        O  0.26573396  0.84835406  0.20562768    -0.84600
C186        C  0.11079428  0.90007324  0.18209966     0.96100
C187        C  0.10824458  0.89752022  0.32378874     1.03600
O188        O  0.16348251  0.83663991  0.25497448    -1.13600
O189        O  0.25043004  0.83489603  0.31929954    -0.76000
O190        O  0.26755545  0.92127533  0.30048428    -0.79500
O191        O  0.08333004  0.84704579  0.18824456    -0.80200
C192        C  0.27899913  0.88742798  0.32387206     0.95000
O193        O  0.25555760  0.92256900  0.18934340    -0.78200
O194        O  0.14240249  0.73136869  0.30668470    -0.83400
C195        C  0.10723955  0.72211255  0.18701997     0.97700
C196        C  0.09456364  0.71826631  0.32638395     1.03600
O197        O  0.07513151  0.73753146  0.20710576    -0.79000
C198        C  0.27939794  0.89403106  0.18049504     1.01900
C199        C  0.00024202  0.51404689  0.07668255    -0.03600
C200        C  0.99192633  0.99966416  0.42491331    -0.03600
Fe201      Fe  0.29783896  0.58030384  0.74870190     1.65800
Fe202      Fe  0.29630435  0.70373482  0.74789956     1.73200
Fe203      Fe  0.42147698  0.70449332  0.74503542     1.54400
O204        O  0.42851058  0.65219825  0.79871194    -0.82700
O205        O  0.34474009  0.75955188  0.68655918    -0.81100
O206        O  0.34742006  0.57220541  0.80479238    -0.85300
O207        O  0.34812624  0.57727275  0.69086535    -0.80100
O208        O  0.42590324  0.75616325  0.80419062    -0.81900
O209        O  0.23870694  0.65419171  0.69695666    -0.84600
C210        C  0.39700588  0.60907679  0.67118329     0.96100
C211        C  0.39794979  0.60267282  0.81710563     1.03600
O212        O  0.33851030  0.66282887  0.74719545    -1.13600
O213        O  0.24237935  0.65344179  0.80939793    -0.76000
O214        O  0.24237952  0.57288750  0.80626237    -0.79500
O215        O  0.42808350  0.65857879  0.68544270    -0.80200
C216        C  0.22363597  0.60260591  0.82453490     0.95000
O217        O  0.24132200  0.57517789  0.69337078    -0.78200
O218        O  0.34693931  0.75958496  0.79913232    -0.83400
C219        C  0.39631966  0.78094714  0.67280253     0.97700
C220        C  0.39486734  0.77631325  0.81699901     1.03600
O221        O  0.42717009  0.76307040  0.69107298    -0.79000
C222        C  0.22042968  0.60576591  0.68080565     1.01900
C223        C  0.50013102  0.48769281  0.92435359    -0.03600
C224        C  0.00812384  0.50682944  0.57358226    -0.03600
C225        C  0.45365203  0.83369102  0.88931173    -0.14400
C226        C  0.41563978  0.82446526  0.85055459     0.07700
C227        C  0.39904627  0.86435547  0.84073874    -0.14400
C228        C  0.42191150  0.91368470  0.86665313    -0.14400
C229        C  0.46132357  0.92463603  0.90505673     0.07700
C230        C  0.47542100  0.88260293  0.91679854    -0.14400
H231        H  0.46733152  0.80373234  0.89764189     0.11700
H232        H  0.37056363  0.85904159  0.81038908     0.11700
H233        H  0.41085445  0.94424084  0.85325985     0.11700
H234        H  0.88938788  0.88910213  0.94267177     0.11700
C235        C  0.15629321  0.60243286  0.89258116    -0.14400
C236        C  0.17387705  0.57374499  0.86072445     0.07700
C237        C  0.13869475  0.51614122  0.85738654    -0.14400
C238        C  0.08507322  0.48878441  0.88042610    -0.14400
C239        C  0.06471405  0.51722492  0.91033461     0.07700
C240        C  0.10315115  0.57426741  0.91805060    -0.14400
H241        H  0.18233350  0.64695876  0.89576506     0.11700
H242        H  0.15052819  0.49248952  0.83277916     0.11700
H243        H  0.04065247  0.08261571  0.85591178     0.11700
H244        H  0.09014027  0.59944381  0.93879492     0.11700
C245        C  0.47900930  0.58997195  0.83450327    -0.14400
C246        C  0.42524189  0.57884273  0.84996319     0.07700
C247        C  0.39821395  0.54253064  0.89329095    -0.14400
C248        C  0.42458237  0.51729031  0.92016064    -0.14400
C249        C  0.47789314  0.52630941  0.90328279     0.07700
C250        C  0.50423540  0.56331158  0.85965767    -0.14400
H251        H  0.50029339  0.61676973  0.80045089     0.11700
H252        H  0.35644343  0.53290071  0.90573379     0.11700
H253        H  0.39215675  0.97202275  0.94999845     0.11700
H254        H  0.03771922  0.55762762  0.83355639     0.11700
C255        C  0.39502802  0.85050596  0.60704479    -0.14400
C256        C  0.42454831  0.83239981  0.63831471     0.07700
C257        C  0.48243553  0.86792210  0.64221141    -0.14400
C258        C  0.50916057  0.92220355  0.62044043    -0.14400
C259        C  0.47946181  0.94295244  0.59206665     0.07700
C260        C  0.42250396  0.90445200  0.58302799    -0.14400
H261        H  0.35045043  0.82401411  0.60292385     0.11700
H262        H  0.50683987  0.85542225  0.66579837     0.11700
H263        H  0.02101540  0.91804309  0.55740825     0.11700
H264        H  0.39790147  0.91818166  0.56129797     0.11700
C265        C  0.10652151  0.52064926  0.58792517    -0.14400
C266        C  0.06622793  0.53706836  0.59857068     0.07700
C267        C  0.07864361  0.57590891  0.63704266    -0.14400
C268        C  0.12979120  0.59970106  0.66092025    -0.14400
C269        C  0.16957126  0.58345622  0.64989390     0.07700
C270        C  0.15726173  0.54318959  0.61345888    -0.14400
H271        H  0.09794332  0.48901323  0.56057937     0.11700
H272        H  0.04823621  0.58636732  0.65146316     0.11700
H273        H  0.13689316  0.62886871  0.69051153     0.11700
H274        H  0.18657061  0.52889965  0.60501671     0.11700
C275        C  0.39199038  0.52638009  0.63009551    -0.14400
C276        C  0.41938226  0.58466598  0.63354387     0.07700
C277        C  0.47069875  0.61706113  0.60568570    -0.14400
C278        C  0.49690623  0.59122376  0.58064074    -0.14400
C279        C  0.47469042  0.53277540  0.58685597     0.07700
C280        C  0.41888487  0.50086811  0.60669438    -0.14400
H281        H  0.35117640  0.49980234  0.64887990     0.11700
H282        H  0.49210110  0.66216843  0.60574834     0.11700
H283        H  0.53805589  0.61733126  0.56233366     0.11700
H284        H  0.42251485  0.95930837  0.65951586     0.11700
C285        C  0.97620209  0.48676025  0.48140878    -0.17500
C286        C  0.01797229  0.50929113  0.51478597    -0.32700
H287        H  0.93863180  0.96711806  0.49914226     0.11500
H288        H  0.56552371  0.53264794  0.50145792     0.12100
C289        C  0.99205011  0.48405835  0.98469077    -0.17500
C290        C  0.01008548  0.52541676  0.01784254    -0.32700
H291        H  0.95489735  0.93848464  0.00203293     0.11500
H292        H  0.52562084  0.56365657  0.00003779     0.12100
C293        C  0.02601250  0.96946298  0.34767740    -0.14400
C294        C  0.02109126  0.96892298  0.40201810     0.07700
C295        C  0.04650787  0.94386120  0.43121065    -0.14400
C296        C  0.07694085  0.92190266  0.40658215    -0.14400
C297        C  0.08183028  0.92402827  0.35252459     0.07700
C298        C  0.05545195  0.94727145  0.32358926    -0.14400
H299        H  0.45117262  0.89605433  0.35959196     0.11700
H300        H  0.10232888  0.54730946  0.38957411     0.11700
H301        H  0.09589991  0.90269786  0.42963192     0.11700
H302        H  0.05781496  0.94843503  0.28184609     0.11700
C303        C  0.33509656  0.89619332  0.40301682    -0.14400
C304        C  0.33146284  0.91270208  0.35222748     0.07700
C305        C  0.37958592  0.95611744  0.32667373    -0.14400
C306        C  0.43073823  0.98169862  0.35040055    -0.14400
C307        C  0.43577174  0.96636802  0.40171467     0.07700
C308        C  0.38642294  0.92304342  0.42771757    -0.14400
H309        H  0.29841992  0.86288754  0.42354187     0.11700
H310        H  0.37803456  0.96922024  0.28710870     0.11700
H311        H  0.46702128  0.01240618  0.32752396     0.11700
H312        H  0.39941608  0.50619154  0.43760307     0.11700
C313        C  0.04683519  0.65363898  0.40546241    -0.14400
C314        C  0.06300454  0.66263190  0.35291899     0.07700
C315        C  0.05079488  0.61687382  0.32355194    -0.14400
C316        C  0.02468805  0.56314105  0.34623827    -0.14400
C317        C  0.01202004  0.55317958  0.39981489     0.07700
C318        C  0.02157437  0.59929348  0.42882173    -0.14400
H319        H  0.05502759  0.68852906  0.42854254     0.12700
H320        H  0.06211470  0.62285582  0.28268666     0.11700
H321        H  0.01654190  0.52909034  0.32199926     0.11700
H322        H  0.52912048  0.59825035  0.46837176     0.11700
C323        C  0.05779216  0.90817339  0.10648012    -0.14400
C324        C  0.09057885  0.93081892  0.14909853     0.07700
C325        C  0.10220398  0.98386111  0.16327947    -0.14400
C326        C  0.07838576  0.01192063  0.13834859    -0.14400
C327        C  0.04322320  0.98915602  0.09647991     0.07700
C328        C  0.03554792  0.93749989  0.07973369    -0.14400
H329        H  0.04827881  0.86733590  0.09456758     0.11700
H330        H  0.12702438  0.00247314  0.19629849     0.11700
H331        H  0.50408504  0.98602037  0.17968106     0.11700
H332        H  0.00856345  0.91705015  0.04883354     0.11700
C333        C  0.34406110  0.96359530  0.10983009    -0.14400
C334        C  0.32747486  0.91548551  0.14213241     0.07700
C335        C  0.36070904  0.88996621  0.14094738    -0.14400
C336        C  0.41301105  0.91629325  0.11495198    -0.14400
C337        C  0.43465552  0.97004643  0.09073447     0.07700
C338        C  0.39626350  0.98931206  0.08258432    -0.14400
H339        H  0.31832825  0.98306739  0.10788384     0.11700
H340        H  0.34811380  0.85116879  0.16296274     0.11700
H341        H  0.43754898  0.89560954  0.11695493     0.11700
H342        H  0.41543714  0.54067653  0.06407016     0.11700
C343        C  0.02501683  0.63062315  0.16924958    -0.14400
C344        C  0.08062033  0.67171244  0.15627508     0.07700
C345        C  0.10985351  0.66155876  0.11731994    -0.14400
C346        C  0.08315180  0.61192523  0.09098582    -0.14400
C347        C  0.02656194  0.57080052  0.10299088     0.07700
C348        C  0.99901904  0.58070951  0.14419279    -0.14400
H349        H  0.00206234  0.63593044  0.20081004     0.11700
H350        H  0.15322164  0.69177526  0.10736934     0.11700
H351        H  0.10723802  0.60501620  0.06168626     0.11700
H352        H  0.45623672  0.54980749  0.15493745     0.11700
Fe353      Fe  0.70229889  0.41623113  0.24485995     1.65800
Fe354      Fe  0.70083438  0.29227391  0.24179012     1.73200
Fe355      Fe  0.57730440  0.29345670  0.25627621     1.54400
O356        O  0.57683908  0.33784826  0.31867110    -0.82700
O357        O  0.64500649  0.23616230  0.19271654    -0.81100
O358        O  0.65070350  0.42191864  0.30083768    -0.85300
O359        O  0.65483248  0.42273814  0.18687532    -0.80100
O360        O  0.57282955  0.23177354  0.30780939    -0.81900
O361        O  0.75019389  0.34019949  0.17822676    -0.84600
C362        C  0.60217386  0.39663260  0.18209347     0.96100
C363        C  0.60568391  0.38939316  0.32688299     1.03600
O364        O  0.66006214  0.33380682  0.24755287    -1.13600
O365        O  0.76278050  0.34329066  0.28987535    -0.76000
O366        O  0.75460359  0.41843082  0.30240368    -0.79500
O367        O  0.56957898  0.35012029  0.20630896    -0.80200
C368        C  0.77815690  0.38938907  0.31056469     0.95000
O369        O  0.76097993  0.42437068  0.18863551    -0.78200
O370        O  0.65669481  0.23787678  0.30438105    -0.83400
C371        C  0.59551821  0.22075079  0.17935169     0.97700
C372        C  0.60619931  0.21501253  0.32191319     1.03600
O373        O  0.56710721  0.24239294  0.19582797    -0.79000
C374        C  0.77438206  0.39223985  0.16649034     1.01900
C375        C  0.49852130  0.00886305  0.07752267    -0.03600
C376        C  0.49137038  0.49154807  0.42438478    -0.03600
Fe377      Fe  0.79620504  0.08588271  0.73792187     1.65800
Fe378      Fe  0.79272058  0.20592447  0.75309241     1.73200
Fe379      Fe  0.91751702  0.20781030  0.75773115     1.54400
O380        O  0.91593571  0.14843672  0.81023484    -0.82700
O381        O  0.84237538  0.26237991  0.69325931    -0.81100
O382        O  0.83787281  0.06901825  0.79542330    -0.85300
O383        O  0.85443993  0.09116305  0.68336974    -0.80100
O384        O  0.91553169  0.25260631  0.81965332    -0.81900
O385        O  0.73360506  0.15735642  0.70213125    -0.84600
C386        C  0.90639644  0.12431644  0.67443557     0.96100
C387        C  0.88358859  0.09614578  0.81819409     1.03600
O388        O  0.83575316  0.16653446  0.74950985    -1.13600
O389        O  0.74104154  0.15220123  0.81373200    -0.76000
O390        O  0.73249080  0.07095730  0.79122630    -0.79500
O391        O  0.93357022  0.16936298  0.69761911    -0.80200
C392        C  0.71701246  0.09904403  0.81801887     0.95000
O393        O  0.74926656  0.09024248  0.67794584    -0.78200
O394        O  0.84225129  0.26289976  0.80444883    -0.83400
C395        C  0.89541174  0.28735338  0.68471065     0.97700
C396        C  0.88718087  0.27664888  0.82708412     1.03600
O397        O  0.92727925  0.27207621  0.70629228    -0.79000
C398        C  0.72176295  0.11577546  0.67552657     1.01900
C399        C  0.99134710  0.98663418  0.92546469    -0.03600
C400        C  0.50472068  0.00660479  0.57702770    -0.03600
C401        C  0.94680223  0.33560195  0.89800035    -0.14400
C402        C  0.90918384  0.32627292  0.85883001     0.07700
C403        C  0.89662987  0.36838090  0.84535366    -0.14400
C404        C  0.92414709  0.42015697  0.86713626    -0.14400
C405        C  0.96496626  0.43192242  0.90439536     0.07700
C406        C  0.97278824  0.38693877  0.92166636    -0.14400
H407        H  0.95708747  0.30377128  0.90949441     0.11700
H408        H  0.86767875  0.36260395  0.81534050     0.11700
H409        H  0.91385260  0.45096356  0.85267874     0.11700
H410        H  0.50026258  0.38842074  0.94946654     0.11700
C411        C  0.65677977  0.08462862  0.89884727    -0.14400
C412        C  0.66523555  0.06710032  0.85114141     0.07700
C413        C  0.62104995  0.01959420  0.83153355    -0.14400
C414        C  0.56872227  0.99194680  0.85696763    -0.14400
C415        C  0.55831983  0.00860520  0.90504925     0.07700
C416        C  0.60438491  0.05519838  0.92594341    -0.14400
H417        H  0.69029421  0.12154614  0.91471871     0.11700
H418        H  0.62581875  0.00572528  0.79427054     0.11700
H419        H  0.55879698  0.44408713  0.86706273     0.11700
H420        H  0.59978202  0.07134013  0.96162106     0.11700
C421        C  0.93153154  0.08557742  0.89629256    -0.14400
C422        C  0.90231987  0.06431041  0.85144100     0.07700
C423        C  0.89687248  0.01463750  0.83405098    -0.14400
C424        C  0.92279640  0.98840269  0.85888064    -0.14400
C425        C  0.95362049  0.00955311  0.90370223     0.07700
C426        C  0.95595896  0.05813760  0.92257756    -0.14400
H427        H  0.93682290  0.12431148  0.91022931     0.11700
H428        H  0.87580100  0.99806978  0.79878280     0.11700
H429        H  0.91218199  0.50827975  0.95748115     0.11700
H430        H  0.54750263  0.08657605  0.86576781     0.11700
C431        C  0.93371976  0.34481322  0.60048489    -0.14400
C432        C  0.92256866  0.34083003  0.65391160     0.07700
C433        C  0.94066894  0.38965142  0.68019148    -0.14400
C434        C  0.96855476  0.44165689  0.65376971    -0.14400
C435        C  0.97884194  0.44701348  0.59973211     0.07700
C436        C  0.96183918  0.39744112  0.57354548    -0.14400
H437        H  0.92108693  0.30736346  0.57974876     0.11700
H438        H  0.93330279  0.38751430  0.72153996     0.11700
H439        H  0.48311553  0.47269026  0.67752494     0.11700
H440        H  0.97028550  0.39876375  0.53266873     0.11700
C441        C  0.61101991  0.03936832  0.57681158    -0.14400
C442        C  0.56439556  0.04135458  0.59847022     0.07700
C443        C  0.57341515  0.07217737  0.64304765    -0.14400
C444        C  0.62538467  0.09847823  0.66521010    -0.14400
C445        C  0.67044523  0.09386310  0.64526349     0.07700
C446        C  0.66299823  0.06420434  0.60059234    -0.14400
H447        H  0.60617599  0.01571509  0.54312047     0.11700
H448        H  0.54011714  0.07478759  0.66298333     0.11700
H449        H  0.62928426  0.12003654  0.70022507     0.11700
H450        H  0.69694183  0.05953958  0.58458815     0.11700
C451        C  0.99220315  0.12021372  0.65162733    -0.14400
C452        C  0.93763740  0.10657410  0.63988800     0.07700
C453        C  0.91102896  0.06826942  0.60178133    -0.14400
C454        C  0.93736954  0.04178685  0.57823544    -0.14400
C455        C  0.98997793  0.05033894  0.59413651     0.07700
C456        C  0.01737418  0.09210604  0.63020496    -0.14400
H457        H  0.01380080  0.14915714  0.68115970     0.11700
H458        H  0.86863300  0.05666321  0.59196853     0.11700
H459        H  0.91355098  0.01053192  0.55158864     0.11700
H460        H  0.89260347  0.45874327  0.60171395     0.11700
C461        C  0.49144901  0.97956817  0.48210687    -0.17500
C462        C  0.51017292  0.01855385  0.51785370    -0.32700
H463        H  0.43827851  0.46497605  0.49918266     0.11500
H464        H  0.06500192  0.03643766  0.50168878     0.12100
C465        C  0.49161622  0.97570783  0.98616171    -0.17500
C466        C  0.50607656  0.01763248  0.01839242    -0.32700
H467        H  0.46986620  0.43742940  0.00090107     0.11500
H468        H  0.04087557  0.06206143  0.99984412     0.12100
C469        C  0.50668165  0.40644233  0.41899972    -0.14400
C470        C  0.52862970  0.46476346  0.41309901     0.07700
C471        C  0.58457351  0.49698319  0.39332345    -0.14400
C472        C  0.61146581  0.47197274  0.36903397    -0.14400
C473        C  0.58422004  0.41387413  0.36526783     0.07700
C474        C  0.53316835  0.38110269  0.39363456    -0.14400
H475        H  0.96561513  0.38294174  0.43457492     0.11700
H476        H  0.59893438  0.00011358  0.44406424     0.11700
H477        H  0.65216753  0.49869216  0.35011119     0.11700
H478        H  0.51186918  0.33600706  0.39340987     0.11700
C479        C  0.83584972  0.44720481  0.38226669    -0.14400
C480        C  0.82807956  0.41146446  0.34245651     0.07700
C481        C  0.87131719  0.40070995  0.32938875    -0.14400
C482        C  0.92154337  0.42553724  0.35485622    -0.14400
C483        C  0.92958315  0.46014504  0.39635371     0.07700
C484        C  0.88577856  0.47106213  0.40886905    -0.14400
H485        H  0.80367456  0.45722951  0.39235946     0.11700
H486        H  0.86751058  0.37523067  0.29728940     0.11700
H487        H  0.95465667  0.41938442  0.33962998     0.11700
H488        H  0.90374499  0.89114690  0.43735720     0.11700
C489        C  0.53659883  0.14422226  0.38942302    -0.14400
C490        C  0.58403982  0.16319237  0.35592108     0.07700
C491        C  0.60583858  0.12769433  0.34849889    -0.14400
C492        C  0.57931977  0.07357203  0.37084088    -0.14400
C493        C  0.53115571  0.05298643  0.40442734     0.07700
C494        C  0.51116794  0.09034748  0.41396212    -0.14400
H495        H  0.51814231  0.17033270  0.39537881     0.12700
H496        H  0.64119300  0.14011677  0.32171021     0.11700
H497        H  0.59570775  0.04781637  0.35792088     0.11700
H498        H  0.96816968  0.08609083  0.43794559     0.11700
C499        C  0.59097050  0.44193500  0.09979463    -0.14400
C500        C  0.57690132  0.42449075  0.15215363     0.07700
C501        C  0.54079490  0.43781993  0.17858757    -0.14400
C502        C  0.51864156  0.46748099  0.15349708    -0.14400
C503        C  0.52896952  0.48217908  0.10010169     0.07700
C504        C  0.56669666  0.46989536  0.07372013    -0.14400
H505        H  0.62018717  0.43344325  0.07904474     0.11700
H506        H  0.53069333  0.42634932  0.21933779     0.11700
H507        H  0.99222884  0.47775548  0.17680506     0.11700
H508        H  0.57825545  0.48232451  0.03340814     0.11700
C509        C  0.84550083  0.47174445  0.10708009    -0.14400
C510        C  0.82382538  0.41738067  0.12949990     0.07700
C511        C  0.85506759  0.39038036  0.12287209    -0.14400
C512        C  0.90977051  0.41966395  0.10162061    -0.14400
C513        C  0.93547673  0.47735088  0.08731251     0.07700
C514        C  0.89991074  0.50049850  0.08413545    -0.14400
H515        H  0.82166138  0.49315325  0.10981421     0.11700
H516        H  0.83905039  0.34782595  0.13784763     0.11700
H517        H  0.93279455  0.39744177  0.09930087     0.11700
H518        H  0.91069745  0.01666156  0.04803199     0.11700
C519        C  0.51379169  0.12950498  0.16100336    -0.14400
C520        C  0.56849107  0.17169958  0.14740332     0.07700
C521        C  0.59972055  0.16142866  0.11050131    -0.14400
C522        C  0.57631603  0.11001801  0.08734565    -0.14400
C523        C  0.52118644  0.06690307  0.10084968     0.07700
C524        C  0.49117792  0.07755609  0.13946209    -0.14400
H525        H  0.48988328  0.13519612  0.19140078     0.11700
H526        H  0.64279756  0.19266934  0.10060269     0.11700
H527        H  0.60202361  0.10319599  0.05978858     0.11700
H528        H  0.95312889  0.05163880  0.14802460     0.11700
Fe529      Fe  0.70743500  0.91637899  0.24322708     1.65800
Fe530      Fe  0.70574605  0.79152641  0.24940836     1.73200
Fe531      Fe  0.58365612  0.79414715  0.24908579     1.54400
O532        O  0.58110120  0.83358333  0.31314469    -0.82700
O533        O  0.65066198  0.73316164  0.19960460    -0.81100
O534        O  0.65248466  0.92054104  0.29731039    -0.85300
O535        O  0.66301512  0.92361750  0.18288985    -0.80100
O536        O  0.57396422  0.72755706  0.29573970    -0.81900
O537        O  0.75835668  0.83753013  0.18700324    -0.84600
C538        C  0.61042597  0.90013700  0.17949760     0.96100
C539        C  0.60686440  0.88522383  0.32137826     1.03600
O540        O  0.66599247  0.83417337  0.24702021    -1.13600
O541        O  0.76580381  0.84393818  0.29938054    -0.76000
O542        O  0.75854724  0.92072364  0.30195020    -0.79500
O543        O  0.57726356  0.85397106  0.20340052    -0.80200
C544        C  0.78125229  0.89218202  0.31549185     0.95000
O545        O  0.76690653  0.92219702  0.18935822    -0.78200
O546        O  0.65833583  0.74057041  0.31270225    -0.83400
C547        C  0.60550161  0.72286586  0.17794589     0.97700
C548        C  0.60540446  0.71351138  0.31902935     1.03600
O549        O  0.58038045  0.75031026  0.18564546    -0.79000
C550        C  0.78172336  0.88884377  0.17210880     1.01900
C551        C  0.49884485  0.51138261  0.07477462    -0.03600
C552        C  0.49554499  0.98971442  0.42310115    -0.03600
Fe553      Fe  0.80112039  0.58389643  0.75013574     1.65800
Fe554      Fe  0.79734498  0.70544384  0.75827329     1.73200
Fe555      Fe  0.92316505  0.70946323  0.73785209     1.54400
O556        O  0.93528213  0.65854054  0.79102482    -0.82700
O557        O  0.84344683  0.76740864  0.70083119    -0.81100
O558        O  0.85374351  0.57899305  0.80391731    -0.85300
O559        O  0.84915610  0.58046688  0.69021244    -0.80100
O560        O  0.93275622  0.76349674  0.79555621    -0.81900
O561        O  0.73913904  0.65804350  0.70530953    -0.84600
C562        C  0.89566442  0.61258350  0.66657846     0.96100
C563        C  0.90525118  0.61006350  0.81276805     1.03600
O564        O  0.84052603  0.66634327  0.74868600    -1.13600
O565        O  0.74466554  0.65142549  0.81772676    -0.76000
O566        O  0.74567899  0.57230333  0.80962898    -0.79500
O567        O  0.92616378  0.66302601  0.67785522    -0.80200
C568        C  0.72626541  0.60028070  0.83018766     0.95000
O569        O  0.74375086  0.58003714  0.69722977    -0.78200
O570        O  0.84949976  0.75605261  0.81280317    -0.83400
C571        C  0.89058265  0.78647587  0.67668716     0.97700
C572        C  0.90156262  0.77768089  0.81987729     1.03600
O573        O  0.92198176  0.76543288  0.68339899    -0.79000
C574        C  0.72208269  0.61044765  0.68678868     1.01900
C575        C  0.00090819  0.49153397  0.92539417    -0.03600
C576        C  0.51202737  0.50594359  0.57613135    -0.03600
C577        C  0.89500206  0.83310004  0.89161260    -0.14400
C578        C  0.92754962  0.82483356  0.85450716     0.07700
C579        C  0.98328455  0.86692142  0.84468003    -0.14400
C580        C  0.00490888  0.91767719  0.86842512    -0.14400
C581        C  0.97207216  0.92774037  0.90454190     0.07700
C582        C  0.91702119  0.88336661  0.91658672    -0.14400
H583        H  0.85158655  0.80163725  0.89966517     0.11700
H584        H  0.00913942  0.86239791  0.81547094     0.11700
H585        H  0.04637012  0.94964976  0.85518274     0.11700
H586        H  0.50651612  0.88953612  0.94490403     0.11700
C587        C  0.65752523  0.59752648  0.89755071    -0.14400
C588        C  0.67575797  0.56976520  0.86519875     0.07700
C589        C  0.63973339  0.51289301  0.85866789    -0.14400
C590        C  0.58483386  0.48587228  0.87898852    -0.14400
C591        C  0.56404684  0.51371602  0.90931526     0.07700
C592        C  0.60309022  0.56963598  0.92023313    -0.14400
H593        H  0.68418325  0.64164979  0.90300746     0.11700
H594        H  0.65210699  0.49015267  0.83354051     0.11700
H595        H  0.53590094  0.95899225  0.83648444     0.11700
H596        H  0.59029794  0.59444613  0.94127464     0.11700
C597        C  0.98101094  0.58804393  0.82667782    -0.14400
C598        C  0.93280568  0.58697911  0.84616542     0.07700
C599        C  0.90887890  0.55856342  0.89400526    -0.14400
C600        C  0.93291578  0.53143309  0.92172737    -0.14400
C601        C  0.98086208  0.53102701  0.90166125     0.07700
C602        C  0.00360837  0.55940917  0.85300675    -0.14400
H603        H  0.99918764  0.60804734  0.78911194     0.11700
H604        H  0.87092422  0.55632223  0.90935774     0.11700
H605        H  0.92091450  0.95325879  0.84025904     0.11700
H606        H  0.54305784  0.56961540  0.84229097     0.11700
C607        C  0.89648855  0.87812768  0.65360597    -0.14400
C608        C  0.91248751  0.83847001  0.64293736     0.07700
C609        C  0.95631013  0.85334908  0.60614679    -0.14400
C610        C  0.98522932  0.90737628  0.58265052    -0.14400
C611        C  0.97230129  0.94898528  0.59590575     0.07700
C612        C  0.92629487  0.93257500  0.63127894    -0.14400
H613        H  0.86366599  0.86849361  0.68253991     0.11700
H614        H  0.97022185  0.82404048  0.59741884     0.11700
H615        H  0.55249203  0.94790038  0.62912497     0.11700
H616        H  0.91498307  0.96206403  0.64518741     0.11700
C617        C  0.61222043  0.52484595  0.59117907    -0.14400
C618        C  0.56934250  0.53745823  0.60241281     0.07700
C619        C  0.57864431  0.57405021  0.64253412    -0.14400
C620        C  0.62943515  0.59991645  0.66704510    -0.14400
C621        C  0.67193433  0.58782974  0.65499521     0.07700
C622        C  0.66261851  0.54944053  0.61722265    -0.14400
H623        H  0.60612100  0.49475286  0.56288256     0.11700
H624        H  0.54609940  0.58123451  0.65752501     0.11700
H625        H  0.63416829  0.62711998  0.69783665     0.11700
H626        H  0.69404373  0.53800546  0.60822504     0.11700
C627        C  0.88851038  0.52982388  0.62395759    -0.14400
C628        C  0.91679421  0.58796579  0.62808041     0.07700
C629        C  0.96883743  0.61993869  0.60118328    -0.14400
C630        C  0.99518832  0.59362026  0.57736167    -0.14400
C631        C  0.97203697  0.53510969  0.58364142     0.07700
C632        C  0.91543078  0.50382930  0.60161721    -0.14400
H633        H  0.84705945  0.50369918  0.64168820     0.11700
H634        H  0.99093578  0.66504429  0.60159622     0.11700
H635        H  0.03682289  0.61930102  0.55987339     0.11700
H636        H  0.05710171  0.10167372  0.64556208     0.11700
C637        C  0.48111629  0.48788328  0.48337503    -0.17500
C638        C  0.52266711  0.50972253  0.51718670    -0.32700
H639        H  0.47289038  0.93611716  0.49487709     0.11500
H640        H  0.06064742  0.53281777  0.49864493     0.12100
C641        C  0.49167280  0.47960146  0.98351770    -0.17500
C642        C  0.50835999  0.52141185  0.01602590    -0.32700
H643        H  0.47240843  0.93361194  0.00372763     0.11500
H644        H  0.02950529  0.56826939  0.00240481     0.12100
C645        C  0.49404320  0.91134267  0.36970399    -0.14400
C646        C  0.52217032  0.95554831  0.40289251     0.07700
C647        C  0.57667749  0.96830490  0.41693926    -0.14400
C648        C  0.60523804  0.94529327  0.39140643    -0.14400
C649        C  0.57785887  0.90519237  0.35508411     0.07700
C650        C  0.52145044  0.88663990  0.34653328    -0.14400
H651        H  0.00804884  0.98872308  0.32340196     0.11700
H652        H  0.60681182  0.54205226  0.39331167     0.11700
H653        H  0.64868755  0.95951197  0.39916872     0.11700
H654        H  0.49922751  0.85508679  0.31912549     0.11700
C655        C  0.84421353  0.88897195  0.38386915    -0.14400
C656        C  0.83103532  0.91913088  0.34754451     0.07700
C657        C  0.86923752  0.97600565  0.33748515    -0.14400
C658        C  0.92002951  0.00217030  0.36194921    -0.14400
C659        C  0.93365243  0.97321161  0.39986706     0.07700
C660        C  0.89442502  0.91579517  0.41012409    -0.14400
H661        H  0.81600378  0.84470466  0.39160827     0.11700
H662        H  0.86130555  0.99983051  0.30807483     0.11700
H663        H  0.94926802  0.04428739  0.34811513     0.11700
H664        H  0.89089207  0.49956999  0.43853409     0.11700
C665        C  0.56679487  0.65399436  0.40188848    -0.14400
C666        C  0.57816372  0.65941058  0.34844837     0.07700
C667        C  0.55873997  0.61149638  0.32058972    -0.14400
C668        C  0.52988787  0.55882451  0.34554449    -0.14400
C669        C  0.51990996  0.55192377  0.39965977     0.07700
C670        C  0.53757993  0.60067301  0.42732222    -0.14400
H671        H  0.57995611  0.69076313  0.42368840     0.12700
H672        H  0.56595655  0.61487407  0.27906106     0.11700
H673        H  0.51672237  0.52295685  0.32247694     0.11700
H674        H  0.00971981  0.59388899  0.46927761     0.11700
C675        C  0.59482222  0.94335228  0.09846549    -0.14400
C676        C  0.58605787  0.93007394  0.15172774     0.07700
C677        C  0.55393211  0.94679516  0.18030837    -0.14400
C678        C  0.52918038  0.97448051  0.15610304    -0.14400
C679        C  0.53326442  0.98408049  0.10192152     0.07700
C680        C  0.56861426  0.96998132  0.07366619    -0.14400
H681        H  0.62085492  0.93207316  0.07597026     0.11700
H682        H  0.54792384  0.93833447  0.22173420     0.11700
H683        H  0.08524485  0.04980526  0.15516584     0.11700
H684        H  0.57627079  0.97901644  0.03257444     0.11700
C685        C  0.84664465  0.95420766  0.09994416    -0.14400
C686        C  0.83319796  0.91222922  0.13881099     0.07700
C687        C  0.87400122  0.89884236  0.15298353    -0.14400
C688        C  0.92847151  0.92956177  0.13224714    -0.14400
C689        C  0.94382696  0.97339974  0.09422088     0.07700
C690        C  0.90093211  0.98332600  0.07678581    -0.14400
H691        H  0.81584537  0.96571113  0.08882466     0.11700
H692        H  0.86508583  0.86758975  0.18377754     0.11700
H693        H  0.95856443  0.92024210  0.14921368     0.11700
H694        H  0.91631564  0.54312456  0.06923991     0.11700
C695        C  0.52232038  0.63255271  0.16114732    -0.14400
C696        C  0.57775733  0.67294210  0.14734639     0.07700
C697        C  0.60738070  0.66098031  0.11034071    -0.14400
C698        C  0.58119686  0.60991830  0.08644195    -0.14400
C699        C  0.52486134  0.56897363  0.09943463     0.07700
C700        C  0.49692273  0.58087150  0.13891939    -0.14400
H701        H  0.49967208  0.63968621  0.19169485     0.11700
H702        H  0.65092102  0.69083398  0.10038840     0.11700
H703        H  0.60544315  0.60175848  0.05838934     0.11700
H704        H  0.95814615  0.54927283  0.15936039     0.11700
loop_ 
_geom_bond_atom_site_label_1 
_geom_bond_atom_site_label_2 
_geom_bond_distance 
_geom_bond_site_symmetry_2 
_ccdc_geom_bond_type 
Fe1          O17   2.081       .  S
Fe1           O7   2.072       .  S
Fe1          O14   2.083       .  S
Fe1           O6   2.085       .  S
Fe1          O12   1.983       .  S
Fe2           O5   2.068       .  S
Fe2           O9   2.060       .  S
Fe2          O13   2.070       .  S
Fe2          O18   2.072       .  S
Fe2          O12   1.975       .  S
Fe3          O21   2.084       .  S
Fe3           O8   2.074       .  S
Fe3          O15   2.078       .  S
Fe3           O4   2.070       .  S
Fe3          O12   1.981       .  S
O4           C11   1.269       .  A
O5           C19   1.269       .  A
O6           C11   1.273       .  A
O7           C10   1.270       .  A
O8           C20   1.270       .  A
O9           C22   1.268       .  A
C10          O15   1.273       .  A
C10         C148   1.474       .  S
C11         C121   1.494       .  S
O13          C16   1.271       .  A
O14          C16   1.273       .  A
C16         C128   1.487       .  S
O17          C22   1.271       .  A
O18          C20   1.272       .  A
C19          O21   1.273       .  A
C19         C168   1.486       .  S
C20         C138   1.489       .  S
C22         C158   1.486       .  S
C23         C114   1.543       .  S
C23         C171   1.569       .  S
C23         C327   1.563   1_545  S
C23         C689   1.558   1_445  S
C24         C285   1.540       .  S
C24         C118   1.564   1_655  S
C24         C483   1.555       .  S
C24         C317   1.551   1_655  S
Fe25         O41   2.080       .  S
Fe25         O31   2.073       .  S
Fe25         O38   2.072       .  S
Fe25         O30   2.070       .  S
Fe25         O36   1.979       .  S
Fe26         O29   2.065       .  S
Fe26         O33   2.071       .  S
Fe26         O37   2.069       .  S
Fe26         O42   2.064       .  S
Fe26         O36   1.970       .  S
Fe27         O45   2.072       .  S
Fe27         O32   2.083       .  S
Fe27         O39   2.070       .  S
Fe27         O28   2.066       .  S
Fe27         O36   1.973       .  S
O28          C35   1.268       .  A
O29          C43   1.265       .  A
O30          C35   1.266       .  A
O31          C34   1.275       .  A
O32          C44   1.276       .  A
O33          C46   1.272       .  A
C34          O39   1.273       .  A
C34         C100   1.475       .  S
C35          C70   1.486       .  S
O37          C40   1.269       .  A
O38          C40   1.268       .  A
C40          C60   1.486       .  S
O41          C46   1.273       .  A
O42          C44   1.275       .  A
C43          O45   1.264       .  A
C43          C80   1.476       .  S
C44          C50   1.474       .  S
C46          C93   1.483       .  S
C47         C465   1.544       .  S
C47          C73   1.560   1_565  S
C47         C229   1.563       .  S
C47         C415   1.568   1_565  S
C48         C110   1.552       .  S
C48          C90   1.564       .  S
C48         C611   1.563   1_445  S
C48         C455   1.573   1_455  S
C49          C50   1.401       .  A
C49          C54   1.404       .  A
C49          H55   1.083       .  S
C50          C51   1.398       .  A
C51          C52   1.391       .  A
C51          H56   1.084       .  S
C52          C53   1.418       .  A
C52          H57   1.078       .  S
C53         C223   1.565       .  S
C53          C54   1.420       .  A
C54         H410   1.083       .  S
H58         C406   1.083   1_455  S
C59          C60   1.406       .  A
C59          C64   1.406       .  A
C59          H65   1.083       .  S
C60          C61   1.402       .  A
C61          C62   1.392       .  A
C61          H66   1.083       .  S
C62          C63   1.414       .  A
C62         H243   1.079       .  S
C63         C399   1.558   1_445  S
C63          C64   1.416       .  A
C64          H68   1.083   1_545  S
H67         C238   1.071       .  S
C69          C70   1.401       .  A
C69          C74   1.394       .  A
C69          H75   1.083       .  S
C70          C71   1.406       .  A
C71          C72   1.406       .  A
C71          H76   1.083       .  S
C72          C73   1.416       .  A
C72         H253   1.083   1_545  S
C73          C74   1.415       .  A
C74         H430   1.079       .  S
H77         C248   1.082       .  S
H78         C426   1.075       .  S
C79          C80   1.404       .  A
C79          C84   1.411       .  A
C79          H85   1.082       .  S
C80          C81   1.397       .  A
C81          C82   1.391       .  A
C81          H86   1.085       .  S
C82          C83   1.413       .  A
C82         H439   1.082       .  S
C83         C576   1.557       .  S
C83          C84   1.418       .  A
C84          H88   1.080       .  S
H87         C434   1.083       .  S
C89          C90   1.420       .  A
C89          C94   1.403       .  A
C89          H95   1.082       .  S
C90          C91   1.417       .  A
C91          C92   1.396       .  A
C91          H96   1.080   1_545  S
C92          C93   1.402       .  A
C92          H97   1.083       .  S
C93          C94   1.402       .  A
C94          H98   1.083       .  S
C99         C100   1.397       .  A
C99         C104   1.392   1_545  A
C99         H105   1.084   1_545  S
C100        C101   1.402       .  A
C101        C102   1.402       .  A
C101        H106   1.083       .  S
C102        C103   1.418       .  A
C102        H107   1.080       .  S
C103        C400   1.562       .  S
C103        C104   1.420   1_545  A
C104        H284   1.079       .  S
H108        C280   1.081       .  S
C109        C200   1.545       .  S
C109        C110   1.352   1_665  D
C109        H287   1.082       .  S
C110        H464   1.085       .  S
H111        C285   1.086       .  S
H112        C462   1.080       .  S
C113        C399   1.544       .  S
C113        C114   1.354   1_666  D
C113        H291   1.083   1_556  S
C114        H468   1.083   1_554  S
H115        C289   1.088   1_554  S
H116        C466   1.086       .  S
C117        C118   1.412       .  A
C117        C122   1.405       .  A
C117        H475   1.083   1_455  S
C118        C119   1.416       .  A
C119        C120   1.400       .  A
C119        H300   1.081       .  S
C120        C121   1.404       .  A
C120        H125   1.083       .  S
C121        C122   1.409       .  A
C122        H126   1.083       .  S
H123        C469   1.083       .  S
H124        C295   1.071       .  S
C127        C128   1.404       .  A
C127        C132   1.407       .  A
C127        H133   1.083       .  S
C128        C129   1.402       .  A
C129        C130   1.395       .  A
C129        H134   1.083       .  S
C130        C131   1.416       .  A
C130        H135   1.078       .  S
C131        C376   1.561       .  S
C131        C132   1.417       .  A
C132        H312   1.083       .  S
H136        C308   1.080       .  S
C137        C138   1.409       .  A
C137        C142   1.408       .  A
C137        H143   1.083       .  S
C138        C139   1.401       .  A
C139        C140   1.393       .  A
C139        H144   1.083       .  S
C140        C141   1.417       .  A
C140        H145   1.081       .  S
C141        C200   1.564   1_445  S
C141        C142   1.413       .  A
C142        H498   1.083   1_455  S
H146        C494   1.083       .  S
C147        C148   1.406       .  A
C147        C152   1.411       .  A
C147        H153   1.082       .  S
C148        C149   1.396       .  A
C149        C150   1.389       .  A
C149        H154   1.085       .  S
C150        C151   1.413       .  A
C150        H507   1.082   1_455  S
C151        C199   1.552       .  S
C151        C152   1.416       .  A
C152        H156   1.081       .  S
H155        C502   1.083       .  S
C157        C158   1.407       .  A
C157        C162   1.405       .  A
C157        H163   1.083       .  S
C158        C159   1.403       .  A
C159        C160   1.394       .  A
C159        H164   1.083       .  S
C160        C161   1.413       .  A
C160        H165   1.082       .  S
C161        C551   1.558       .  S
C161        C162   1.413       .  A
C162        H342   1.083       .  S
H166        C338   1.083   1_545  S
C167        C168   1.400       .  A
C167        C172   1.400   1_455  A
C167        H173   1.083   1_455  S
C168        C169   1.404       .  A
C169        C170   1.404       .  A
C169        H174   1.083       .  S
C170        C171   1.418       .  A
C170        H175   1.083       .  S
C171        C172   1.419   1_455  A
C172        H528   1.078       .  S
H176        C524   1.078       .  S
Fe177       O193   2.089       .  S
Fe177       O183   2.045       .  S
Fe177       O190   2.049       .  S
Fe177       O182   2.093       .  S
Fe177       O188   1.963       .  S
Fe178       O181   2.090       .  S
Fe178       O185   2.067       .  S
Fe178       O189   2.099       .  S
Fe178       O194   2.063       .  S
Fe178       O188   1.964       .  S
Fe179       O197   2.059       .  S
Fe179       O184   2.082       .  S
Fe179       O191   2.093       .  S
Fe179       O180   2.062       .  S
Fe179       O188   1.966       .  S
O180        C187   1.268       .  A
O181        C195   1.274       .  A
O182        C187   1.275       .  A
O183        C186   1.265       .  A
O184        C196   1.273       .  A
O185        C198   1.272       .  A
C186        O191   1.274       .  A
C186        C324   1.482       .  S
C187        C297   1.474       .  S
O189        C192   1.274       .  A
O190        C192   1.265       .  A
C192        C304   1.480       .  S
O193        C198   1.276       .  A
O194        C196   1.271       .  A
C195        O197   1.268       .  A
C195        C344   1.486       .  S
C196        C314   1.471       .  S
C198        C334   1.491       .  S
C199        C290   1.540       .  S
C199        C513   1.564   1_455  S
C199        C347   1.557       .  S
C200        C294   1.555   1_655  S
C200        C659   1.562       .  S
Fe201       O217   2.093       .  S
Fe201       O207   2.057       .  S
Fe201       O214   2.047       .  S
Fe201       O206   2.094       .  S
Fe201       O212   1.978       .  S
Fe202       O205   2.095       .  S
Fe202       O209   2.049       .  S
Fe202       O213   2.093       .  S
Fe202       O218   2.045       .  S
Fe202       O212   1.983       .  S
Fe203       O221   2.044       .  S
Fe203       O208   2.102       .  S
Fe203       O215   2.100       .  S
Fe203       O204   2.050       .  S
Fe203       O212   1.980       .  S
O204        C211   1.265       .  A
O205        C219   1.275       .  A
O206        C211   1.272       .  A
O207        C210   1.269       .  A
O208        C220   1.275       .  A
O209        C222   1.266       .  A
C210        O215   1.276       .  A
C210        C276   1.494       .  S
C211        C246   1.482       .  S
O213        C216   1.275       .  A
O214        C216   1.268       .  A
C216        C236   1.486       .  S
O217        C222   1.273       .  A
O218        C220   1.266       .  A
C219        O221   1.266       .  A
C219        C256   1.486       .  S
C220        C226   1.486       .  S
C222        C269   1.485       .  S
C223        C641   1.541       .  S
C223        C591   1.569       .  S
C223        C249   1.558       .  S
C224        C286   1.539       .  S
C224        C435   1.554   1_455  S
C224        C266   1.558       .  S
C224        C631   1.563   1_455  S
C225        C226   1.402       .  A
C225        C230   1.408       .  A
C225        H231   1.083       .  S
C226        C227   1.404       .  A
C227        C228   1.393       .  A
C227        H232   1.084       .  S
C228        C229   1.414       .  A
C228        H233   1.079       .  S
C229        C230   1.420       .  A
C230        H586   1.083       .  S
H234        C582   1.083       .  S
C235        C236   1.402       .  A
C235        C240   1.406       .  A
C235        H241   1.081       .  S
C236        C237   1.401       .  A
C237        C238   1.390       .  A
C237        H242   1.085       .  S
C238        C239   1.416       .  A
C239        C575   1.567       .  S
C239        C240   1.421       .  A
C240        H244   1.083       .  S
C245        C246   1.401       .  A
C245        C250   1.392       .  A
C245        H251   1.084       .  S
C246        C247   1.403       .  A
C247        C248   1.408       .  A
C247        H252   1.083       .  S
C248        C249   1.419       .  A
C249        C250   1.415       .  A
C250        H606   1.080       .  S
H254        C602   1.082       .  S
C255        C256   1.402       .  A
C255        C260   1.406       .  A
C255        H261   1.082       .  S
C256        C257   1.404       .  A
C257        C258   1.391       .  A
C257        H262   1.084       .  S
C258        C259   1.412       .  A
C258        H615   1.076       .  S
C259        C400   1.566   1_565  S
C259        C260   1.421       .  A
C260        H264   1.083       .  S
H263        C610   1.077   1_455  S
C265        C266   1.418       .  A
C265        C270   1.407       .  A
C265        H271   1.083       .  S
C266        C267   1.413       .  A
C267        C268   1.393       .  A
C267        H272   1.078       .  S
C268        C269   1.403       .  A
C268        H273   1.084       .  S
C269        C270   1.402       .  A
C270        H274   1.082       .  S
C275        C276   1.407       .  A
C275        C280   1.396       .  A
C275        H281   1.083       .  S
C276        C277   1.406       .  A
C277        C278   1.408       .  A
C277        H282   1.083       .  S
C278        C279   1.416       .  A
C278        H283   1.083       .  S
C279        C576   1.564       .  S
C279        C280   1.412       .  A
C285        C286   1.352   1_655  D
C286        H640   1.087       .  S
H288        C638   1.086       .  S
C289        C575   1.545   1_655  S
C289        C290   1.350   1_656  D
C290        H644   1.085       .  S
H292        C642   1.080       .  S
C293        C294   1.414       .  A
C293        C298   1.389       .  A
C293        H651   1.083       .  S
C294        C295   1.416       .  A
C295        C296   1.412       .  A
C296        C297   1.404       .  A
C296        H301   1.084       .  S
C297        C298   1.396       .  A
C298        H302   1.083       .  S
H299        C645   1.079       .  S
C303        C304   1.401       .  A
C303        C308   1.409       .  A
C303        H309   1.082       .  S
C304        C305   1.401       .  A
C305        C306   1.392       .  A
C305        H310   1.085       .  S
C306        C307   1.413       .  A
C306        H311   1.081   1_565  S
C307        C552   1.561       .  S
C307        C308   1.423       .  A
C313        C314   1.402       .  A
C313        C318   1.409       .  A
C313        H319   1.083       .  S
C314        C315   1.398       .  A
C315        C316   1.388       .  A
C315        H320   1.084       .  S
C316        C317   1.411       .  A
C316        H321   1.083       .  S
C317        C318   1.417       .  A
C318        H674   1.077       .  S
H322        C670   1.080       .  S
C323        C324   1.400       .  A
C323        C328   1.407       .  A
C323        H329   1.084       .  S
C324        C325   1.402       .  A
C325        C326   1.390   1_565  A
C325        H330   1.083   1_565  S
C326        C327   1.414   1_545  A
C326        H683   1.079       .  S
C327        C328   1.422       .  A
C328        H332   1.074       .  S
H331        C678   1.083       .  S
C333        C334   1.407       .  A
C333        C338   1.407       .  A
C333        H339   1.082       .  S
C334        C335   1.406       .  A
C335        C336   1.395       .  A
C335        H340   1.083       .  S
C336        C337   1.412       .  A
C336        H341   1.081       .  S
C337        C375   1.561   1_565  S
C337        C338   1.415       .  A
C343        C344   1.404       .  A
C343        C348   1.394   1_455  A
C343        H349   1.084       .  S
C344        C345   1.402       .  A
C345        C346   1.407       .  A
C345        H350   1.082       .  S
C346        C347   1.419       .  A
C346        H351   1.083       .  S
C347        C348   1.412   1_455  A
C348        H704   1.078       .  S
H352        C700   1.079       .  S
Fe353       O369   2.079       .  S
Fe353       O359   2.071       .  S
Fe353       O366   2.075       .  S
Fe353       O358   2.079       .  S
Fe353       O364   1.975       .  S
Fe354       O357   2.061       .  S
Fe354       O361   2.071       .  S
Fe354       O365   2.068       .  S
Fe354       O370   2.075       .  S
Fe354       O364   1.971       .  S
Fe355       O373   2.080       .  S
Fe355       O360   2.079       .  S
Fe355       O367   2.090       .  S
Fe355       O356   2.073       .  S
Fe355       O364   1.980       .  S
O356        C363   1.269       .  A
O357        C371   1.268       .  A
O358        C363   1.272       .  A
O359        C362   1.269       .  A
O360        C372   1.270       .  A
O361        C374   1.270       .  A
C362        O367   1.275       .  A
C362        C500   1.479       .  S
C363        C473   1.493       .  S
O365        C368   1.271       .  A
O366        C368   1.272       .  A
C368        C480   1.481       .  S
O369        C374   1.270       .  A
O370        C372   1.273       .  A
C371        O373   1.274       .  A
C371        C520   1.479       .  S
C372        C490   1.490       .  S
C374        C510   1.490       .  S
C375        C466   1.540       .  S
C375        C679   1.557   1_545  S
C375        C523   1.557       .  S
C376        C637   1.543       .  S
C376        C470   1.564       .  S
C376        C669   1.553       .  S
Fe377       O393   2.079       .  S
Fe377       O383   2.066       .  S
Fe377       O390   2.077       .  S
Fe377       O382   2.074       .  S
Fe377       O388   1.974       .  S
Fe378       O381   2.083       .  S
Fe378       O385   2.060       .  S
Fe378       O389   2.086       .  S
Fe378       O394   2.052       .  S
Fe378       O388   1.970       .  S
Fe379       O397   2.084       .  S
Fe379       O384   2.083       .  S
Fe379       O391   2.081       .  S
Fe379       O380   2.076       .  S
Fe379       O388   1.974       .  S
O380        C387   1.272       .  A
O381        C395   1.278       .  A
O382        C387   1.272       .  A
O383        C386   1.268       .  A
O384        C396   1.268       .  A
O385        C398   1.265       .  A
C386        O391   1.273       .  A
C386        C452   1.486       .  S
C387        C422   1.481       .  S
O389        C392   1.276       .  A
O390        C392   1.276       .  A
C392        C412   1.483       .  S
O393        C398   1.266       .  A
O394        C396   1.263       .  A
C395        O397   1.276       .  A
C395        C432   1.474       .  S
C396        C402   1.486       .  S
C398        C445   1.485       .  S
C399        C581   1.564       .  S
C399        C425   1.564   1_565  S
C400        C462   1.548       .  S
C400        C442   1.561       .  S
C401        C402   1.402       .  A
C401        C406   1.406       .  A
C401        H407   1.083       .  S
C402        C403   1.403       .  A
C403        C404   1.394       .  A
C403        H408   1.083       .  S
C404        C405   1.416       .  A
C404        H409   1.079       .  S
C405        C575   1.568   1_655  S
C405        C406   1.421       .  A
C411        C412   1.404       .  A
C411        C416   1.411       .  A
C411        H417   1.083       .  S
C412        C413   1.396       .  A
C413        C414   1.389   1_545  A
C413        H418   1.084       .  S
C414        C415   1.420   1_565  A
C414        H595   1.080       .  S
C415        C416   1.420       .  A
C416        H420   1.076       .  S
H419        C590   1.075       .  S
C421        C422   1.402       .  A
C421        C426   1.406       .  A
C421        H427   1.084       .  S
C422        C423   1.399       .  A
C423        C424   1.395   1_545  A
C423        H428   1.083   1_545  S
C424        C425   1.418   1_565  A
C424        H605   1.080       .  S
C425        C426   1.419       .  A
H429        C600   1.082       .  S
C431        C432   1.404       .  A
C431        C436   1.410       .  A
C431        H437   1.084       .  S
C432        C433   1.396       .  A
C433        C434   1.391       .  A
C433        H438   1.083       .  S
C434        C435   1.414       .  A
C435        C436   1.416       .  A
C436        H440   1.078       .  S
C441        C442   1.419       .  A
C441        C446   1.410       .  A
C441        H447   1.083       .  S
C442        C443   1.416       .  A
C443        C444   1.391       .  A
C443        H448   1.079       .  S
C444        C445   1.401       .  A
C444        H449   1.084       .  S
C445        C446   1.405       .  A
C446        H450   1.083       .  S
C451        C452   1.398       .  A
C451        C456   1.395   1_655  A
C451        H457   1.083   1_655  S
C452        C453   1.405       .  A
C453        C454   1.407       .  A
C453        H458   1.084       .  S
C454        C455   1.418       .  A
C454        H459   1.075       .  S
C455        C456   1.422   1_655  A
C456        H636   1.077       .  S
H460        C632   1.082       .  S
C461        C552   1.539       .  S
C461        C462   1.353   1_565  D
C461        H639   1.080       .  S
H463        C637   1.087       .  S
C465        C466   1.353   1_566  D
C465        H643   1.087   1_556  S
H467        C641   1.085   1_554  S
C469        C470   1.413       .  A
C469        C474   1.407       .  A
C470        C471   1.415       .  A
C471        C472   1.396       .  A
C471        H652   1.081       .  S
C472        C473   1.403       .  A
C472        H477   1.083       .  S
C473        C474   1.409       .  A
C474        H478   1.083       .  S
H476        C647   1.083   1_545  S
C479        C480   1.403       .  A
C479        C484   1.403       .  A
C479        H485   1.082       .  S
C480        C481   1.401       .  A
C481        C482   1.395       .  A
C481        H486   1.085       .  S
C482        C483   1.415       .  A
C482        H487   1.078       .  S
C483        C484   1.416       .  A
C484        H664   1.084       .  S
H488        C660   1.083       .  S
C489        C490   1.408       .  A
C489        C494   1.411       .  A
C489        H495   1.083       .  S
C490        C491   1.398       .  A
C491        C492   1.393       .  A
C491        H496   1.084       .  S
C492        C493   1.419       .  A
C492        H497   1.074       .  S
C493        C552   1.572   1_545  S
C493        C494   1.417       .  A
C499        C500   1.406       .  A
C499        C504   1.411       .  A
C499        H505   1.083       .  S
C500        C501   1.397       .  A
C501        C502   1.392       .  A
C501        H506   1.084       .  S
C502        C503   1.413       .  A
C503        C551   1.554       .  S
C503        C504   1.416       .  A
C504        H508   1.081       .  S
C509        C510   1.408       .  A
C509        C514   1.407       .  A
C509        H515   1.083       .  S
C510        C511   1.403       .  A
C511        C512   1.397       .  A
C511        H516   1.083       .  S
C512        C513   1.416       .  A
C512        H517   1.082       .  S
C513        C514   1.412       .  A
C514        H694   1.083       .  S
H518        C690   1.083   1_545  S
C519        C520   1.399       .  A
C519        C524   1.396       .  A
C519        H525   1.084       .  S
C520        C521   1.404       .  A
C521        C522   1.402       .  A
C521        H526   1.083       .  S
C522        C523   1.414       .  A
C522        H527   1.083       .  S
C523        C524   1.417       .  A
Fe529       O545   2.074       .  S
Fe529       O535   2.068       .  S
Fe529       O542   2.060       .  S
Fe529       O534   2.093       .  S
Fe529       O540   1.969       .  S
Fe530       O533   2.092       .  S
Fe530       O537   2.066       .  S
Fe530       O541   2.088       .  S
Fe530       O546   2.076       .  S
Fe530       O540   1.967       .  S
Fe531       O549   2.059       .  S
Fe531       O536   2.063       .  S
Fe531       O543   2.078       .  S
Fe531       O532   2.043       .  S
Fe531       O540   1.965       .  S
O532        C539   1.269       .  A
O533        C547   1.276       .  A
O534        C539   1.276       .  A
O535        C538   1.265       .  A
O536        C548   1.265       .  A
O537        C550   1.272       .  A
C538        O543   1.268       .  A
C538        C676   1.475       .  S
C539        C649   1.469       .  S
O541        C544   1.273       .  A
O542        C544   1.270       .  A
C544        C656   1.483       .  S
O545        C550   1.271       .  A
O546        C548   1.268       .  A
C547        O549   1.273       .  A
C547        C696   1.476       .  S
C548        C666   1.470       .  S
C550        C686   1.475       .  S
C551        C642   1.535       .  S
C551        C699   1.555       .  S
C552        C646   1.554       .  S
Fe553       O569   2.077       .  S
Fe553       O559   2.059       .  S
Fe553       O566   2.052       .  S
Fe553       O558   2.078       .  S
Fe553       O564   1.977       .  S
Fe554       O557   2.085       .  S
Fe554       O561   2.075       .  S
Fe554       O565   2.076       .  S
Fe554       O570   2.062       .  S
Fe554       O564   1.982       .  S
Fe555       O573   2.068       .  S
Fe555       O560   2.083       .  S
Fe555       O567   2.082       .  S
Fe555       O556   2.082       .  S
Fe555       O564   1.983       .  S
O556        C563   1.274       .  A
O557        C571   1.273       .  A
O558        C563   1.272       .  A
O559        C562   1.267       .  A
O560        C572   1.274       .  A
O561        C574   1.275       .  A
C562        O567   1.270       .  A
C562        C628   1.492       .  S
C563        C598   1.482       .  S
O565        C568   1.268       .  A
O566        C568   1.265       .  A
C568        C588   1.484       .  S
O569        C574   1.273       .  A
O570        C572   1.269       .  A
C571        O573   1.270       .  A
C571        C608   1.490       .  S
C572        C578   1.485       .  S
C574        C621   1.484       .  S
C575        C601   1.560   1_455  S
C576        C638   1.543       .  S
C576        C618   1.560       .  S
C577        C578   1.404       .  A
C577        C582   1.402       .  A
C577        H583   1.083       .  S
C578        C579   1.401       .  A
C579        C580   1.397   1_655  A
C579        H584   1.083   1_655  S
C580        C581   1.419   1_455  A
C580        H585   1.078       .  S
C581        C582   1.416       .  A
C587        C588   1.401       .  A
C587        C592   1.404       .  A
C587        H593   1.084       .  S
C588        C589   1.400       .  A
C589        C590   1.393       .  A
C589        H594   1.083       .  S
C590        C591   1.417       .  A
C591        C592   1.421       .  A
C592        H596   1.074       .  S
C597        C598   1.398       .  A
C597        C602   1.394   1_655  A
C597        H603   1.084       .  S
C598        C599   1.406       .  A
C599        C600   1.409       .  A
C599        H604   1.083       .  S
C600        C601   1.415       .  A
C601        C602   1.419   1_655  A
C607        C608   1.404       .  A
C607        C612   1.401       .  A
C607        H613   1.083       .  S
C608        C609   1.405       .  A
C609        C610   1.403       .  A
C609        H614   1.083       .  S
C610        C611   1.414       .  A
C611        C612   1.417       .  A
C612        H616   1.078       .  S
C617        C618   1.415       .  A
C617        C622   1.406       .  A
C617        H623   1.083       .  S
C618        C619   1.417       .  A
C619        C620   1.394       .  A
C619        H624   1.079       .  S
C620        C621   1.400       .  A
C620        H625   1.084       .  S
C621        C622   1.405       .  A
C622        H626   1.083       .  S
C627        C628   1.405       .  A
C627        C632   1.395       .  A
C627        H633   1.083       .  S
C628        C629   1.407       .  A
C629        C630   1.407       .  A
C629        H634   1.083       .  S
C630        C631   1.414       .  A
C630        H635   1.083   1_655  S
C631        C632   1.413       .  A
C637        C638   1.354       .  D
C641        C642   1.349   1_556  D
C645        C646   1.414       .  A
C645        C650   1.387       .  A
C646        C647   1.418       .  A
C647        C648   1.404       .  A
C648        C649   1.401       .  A
C648        H653   1.083       .  S
C649        C650   1.397       .  A
C650        H654   1.084       .  S
C655        C656   1.403       .  A
C655        C660   1.407       .  A
C655        H661   1.083       .  S
C656        C657   1.401       .  A
C657        C658   1.394   1_565  A
C657        H662   1.084       .  S
C658        C659   1.415   1_545  A
C658        H663   1.077       .  S
C659        C660   1.418       .  A
C665        C666   1.403       .  A
C665        C670   1.409       .  A
C665        H671   1.082       .  S
C666        C667   1.395       .  A
C667        C668   1.390       .  A
C667        H672   1.085       .  S
C668        C669   1.415       .  A
C668        H673   1.081       .  S
C669        C670   1.416       .  A
C675        C676   1.403       .  A
C675        C680   1.409       .  A
C675        H681   1.083       .  S
C676        C677   1.398       .  A
C677        C678   1.393       .  A
C677        H682   1.084       .  S
C678        C679   1.414       .  A
C679        C680   1.418       .  A
C680        H684   1.079       .  S
C685        C686   1.404       .  A
C685        C690   1.407       .  A
C685        H691   1.083       .  S
C686        C687   1.396       .  A
C687        C688   1.389       .  A
C687        H692   1.084       .  S
C688        C689   1.417       .  A
C688        H693   1.078       .  S
C689        C690   1.416       .  A
C695        C696   1.400       .  A
C695        C700   1.396       .  A
C695        H701   1.083       .  S
C696        C697   1.401       .  A
C697        C698   1.403       .  A
C697        H702   1.084       .  S
C698        C699   1.417       .  A
C698        H703   1.082       .  S
C699        C700   1.414       .  A
