geometry optimzed in LAMMPS
_audit_creation_date              2020-12-01 
_audit_creation_method            'lammps2cif' 
_symmetry_space_group_name_H-M    'P1' 
_symmetry_Int_Tables_number       1 
_symmetry_cell_setting            triclinic 
loop_ 
_symmetry_equiv_pos_as_xyz 
  x,y,z 
_cell_length_a                    44.74963089 
_cell_length_b                    44.741030695528515 
_cell_length_c                    33.36677150574925 
_cell_angle_alpha                 89.99200090588803 
_cell_angle_beta                  90.00785134595358 
_cell_angle_gamma                 119.9907642725015 
loop_ 
_atom_site_label 
_atom_site_type_symbol 
_atom_site_fract_x 
_atom_site_fract_y 
_atom_site_fract_z 
_atom_site_charge 
C1          C  0.49828615  0.72495094  0.10005324     0.81600
N2          N  0.49860874  0.72506293  0.14069757    -0.76700
C3          C  0.49802307  0.75098651  0.16120178     0.84000
N4          N  0.49707237  0.77677119  0.14077588    -0.76700
C5          C  0.49677768  0.77666751  0.10012640     0.84100
N6          N  0.49734041  0.75072865  0.07974870    -0.78400
C7          C  0.49874155  0.72513837  0.26636518     0.81600
N8          N  0.49877488  0.72509936  0.22570230    -0.76700
C9          C  0.49820660  0.75105368  0.20519052     0.84000
N10         N  0.49754280  0.77697730  0.22561361    -0.76700
C11         C  0.49753098  0.77700646  0.26625479     0.84100
N12         N  0.49807887  0.75106591  0.28663530    -0.78400
C13         C  0.25007426  0.77413567  0.26619004     0.81600
N14         N  0.25011359  0.77400453  0.22553298    -0.76700
C15         C  0.22391744  0.74766643  0.20509584     0.84000
N16         N  0.19771376  0.72141949  0.22562525    -0.76700
C17         C  0.19767136  0.72156394  0.26629230     0.84100
N18         N  0.22385998  0.74790884  0.28656965    -0.78400
C19         C  0.25020514  0.77411302  0.10001741     0.81600
N20         N  0.22407158  0.74784702  0.07958573    -0.76700
C21         C  0.19786016  0.72147553  0.09981417     0.84000
N22         N  0.19781042  0.72135210  0.14048990    -0.76700
C23         C  0.22395201  0.74764068  0.16106118     0.84100
N24         N  0.25015163  0.77399482  0.14066657    -0.78400
C25         C  0.19962825  0.47646330  0.10025799     0.81600
N26         N  0.19959858  0.47615745  0.14090941    -0.76700
C27         C  0.22603460  0.47643830  0.16127070     0.84000
N28         N  0.25253979  0.47706315  0.14067346    -0.76700
C29         C  0.25258452  0.47736879  0.10000455     0.84100
N30         N  0.22614600  0.47711563  0.07979760    -0.78400
C31         C  0.19995380  0.47663463  0.26645252     0.81600
N32         N  0.19980563  0.47632985  0.22579801    -0.76700
C33         C  0.22609214  0.47642866  0.20530155     0.84000
N34         N  0.25258256  0.47690082  0.22576438    -0.76700
C35         C  0.25274482  0.47721067  0.26643070     0.84100
N36         N  0.22645038  0.47711976  0.28677477    -0.78400
C37         C  0.75768373  0.26630861  0.26626471     0.81600
N38         N  0.73135055  0.23999022  0.28646650    -0.76700
C39         C  0.70450829  0.21452599  0.26593074     0.84000
N40         N  0.70411304  0.21526818  0.22533587    -0.76700
C41         C  0.73041532  0.24154161  0.20506072     0.84100
N42         N  0.75722242  0.26703581  0.22564589    -0.78400
C43         C  0.75822827  0.26655134  0.10021425     0.81600
N44         N  0.73208099  0.24029029  0.07973940    -0.76700
C45         C  0.70511541  0.21470961  0.09998803     0.84000
N46         N  0.70442449  0.21531335  0.14059631    -0.76700
C47         C  0.73056731  0.24156289  0.16113055     0.84100
N48         N  0.75747973  0.26714431  0.14080986    -0.78400
C49         C  0.70747350  0.49251713  0.10061748     0.81600
N50         N  0.73386784  0.49286786  0.08017174    -0.76700
C51         C  0.75953658  0.49166183  0.10045522     0.84000
N52         N  0.75887866  0.49032381  0.14106381    -0.76700
C53         C  0.73252366  0.49004334  0.16155876     0.84100
N54         N  0.70686597  0.49119721  0.14120610    -0.78400
C55         C  0.70817832  0.49327061  0.26663916     0.81600
N56         N  0.73432953  0.49296893  0.28685540    -0.76700
C57         C  0.75950729  0.49106979  0.26636208     0.84000
N58         N  0.75867588  0.48971353  0.22578296    -0.76700
C59         C  0.73257546  0.49005632  0.20548011     0.84100
N60         N  0.70734623  0.49189296  0.22602670    -0.78400
C61         C  0.48204551  0.21677999  0.26636307     0.81600
N62         N  0.48204212  0.24306523  0.28665824    -0.76700
C63         C  0.48394100  0.27020854  0.26625390     0.84000
N64         N  0.48561865  0.27093837  0.22566567    -0.76700
C65         C  0.48556918  0.24464708  0.20529795     0.84100
N66         N  0.48371300  0.21754548  0.22577670    -0.78400
C67         C  0.48236545  0.21672195  0.10040911     0.81600
N68         N  0.48386117  0.21751228  0.14100274    -0.76700
C69         C  0.48564192  0.24462988  0.16135447     0.84000
N70         N  0.48578636  0.27091788  0.14085043    -0.76700
C71         C  0.48430904  0.27017905  0.10024814     0.84100
N72         N  0.48247263  0.24300901  0.07997591    -0.78400
O73         O  0.51601864  0.58382381  0.01146893    -0.73900
O74         O  0.46847149  0.57622892  0.47731630    -0.52800
C75         C  0.49310974  0.59207079  0.50260876     0.79800
O76         O  0.57275017  0.52402941  0.35246528    -0.58500
O77         O  0.56713151  0.47857556  0.38959473    -0.51500
C78         C  0.58161433  0.50173447  0.36242161     0.71800
O79         O  0.51624455  0.58433951  0.35597935    -0.73100
O80         O  0.46865741  0.57660814  0.39026648    -0.53600
C81         C  0.49331191  0.59253995  0.36501603     0.77800
O82         O  0.57231203  0.52341009  0.01445216    -0.58200
O83         O  0.56616130  0.47747477  0.47781672    -0.51300
C84         C  0.58067765  0.50064482  0.50495889     0.74400
Zr85       Zr  0.52977778  0.53927179  0.49299880     2.54700
O86         O  0.58473027  0.59306032  0.49078842    -0.78800
O87         O  0.52846921  0.53924940  0.06614031    -0.92200
Zr88       Zr  0.52996364  0.53962479  0.37388707     2.64700
O89         O  0.58455824  0.59383999  0.37631354    -0.97200
O90         O  0.52929939  0.54024030  0.30093546    -0.79200
O91         O  0.51343646  0.55648520  0.43351273    -0.82600
O92         O  0.54747799  0.52366114  0.43339762    -2.17300
O93         O  0.45701422  0.40743301  0.01416939    -0.66000
O94         O  0.50257334  0.41346479  0.47675669    -0.50500
C95         C  0.47946215  0.39876995  0.50395746     0.72800
O96         O  0.39565383  0.46302787  0.35575030    -0.58900
O97         O  0.40266434  0.51028504  0.39014629    -0.50800
C98         C  0.38700587  0.48562970  0.36480957     0.74600
O99         O  0.45718235  0.40804034  0.35179184    -0.70300
O100        O  0.50298628  0.41413884  0.38855450    -0.48900
C101        C  0.47980135  0.39953652  0.36140961     0.76000
O102        O  0.39556101  0.46255820  0.01123522    -0.65600
O103        O  0.40246663  0.50977156  0.47673375    -0.52800
C104        C  0.38697320  0.48519803  0.50222150     0.74400
Zr105      Zr  0.44102775  0.44996568  0.49285022     2.77500
O106        O  0.38711815  0.39510452  0.49125614    -0.96300
O107        O  0.44049003  0.45139716  0.06573196    -0.77200
Zr108      Zr  0.44113701  0.45038247  0.37352099     2.70100
O109        O  0.38786526  0.39500604  0.37534033    -0.78400
O110        O  0.44092236  0.45282769  0.30064396    -0.94500
Zr111      Zr  0.45201442  0.52733202  0.43349920     2.21500
Zr112      Zr  0.51834734  0.46219415  0.43312953     2.11100
O113        O  0.45698105  0.43280679  0.43305576    -2.46200
O114        O  0.42362221  0.46602731  0.43328416    -0.78200
O115        O  0.50215414  0.47814306  0.49381349    -0.70400
O116        O  0.46872182  0.51152640  0.37281725    -2.31400
O117        O  0.46856751  0.51111365  0.49397118    -2.27600
O118        O  0.50226568  0.47849543  0.37261034    -0.72200
H119        H  0.57221640  0.53338586  0.43352184     0.79800
H120        H  0.46114950  0.51898985  0.34972681     0.80900
H121        H  0.44743843  0.40809491  0.43286643     0.83100
H122        H  0.46079237  0.51825665  0.01725303     0.80800
H123        H  0.50477719  0.52502705  0.29364759     0.43800
H124        H  0.46320021  0.45502582  0.29243975     0.42800
H125        H  0.37669558  0.39539332  0.40079367     0.42400
H126        H  0.39124957  0.38069004  0.47205587     0.40400
H127        H  0.46501984  0.46633436  0.07319833     0.43500
H128        H  0.50695584  0.53920329  0.07318938     0.38300
H129        H  0.58353517  0.60466588  0.46607100     0.44400
H130        H  0.60065008  0.58829235  0.39041621     0.40800
H131        H  0.38636093  0.38337588  0.01615180     0.45700
H132        H  0.54720026  0.56255538  0.07375634     0.44500
H133        H  0.59277352  0.59809579  0.34821497     0.44600
H134        H  0.42334396  0.42922916  0.29232057     0.45000
O135        O  0.03995704  0.57859430  0.35457944    -0.73900
O136        O  0.08018433  0.57195456  0.38955005    -0.52800
C137        C  0.07118274  0.58736584  0.36385037     0.79800
O138        O  0.92354655  0.51754213  0.01434829    -0.58500
O139        O  0.88382423  0.47213028  0.47701419    -0.51500
C140        C  0.89240404  0.49506358  0.50447381     0.71800
O141        O  0.04012952  0.57922421  0.01052886    -0.73100
O142        O  0.08029584  0.57207772  0.47618110    -0.53600
C143        C  0.07133392  0.58765117  0.50168834     0.77800
O144        O  0.92373492  0.51754517  0.35135969    -0.58200
O145        O  0.88414669  0.47178145  0.38828628    -0.51300
C146        C  0.89268428  0.49488872  0.36105706     0.74400
Zr147      Zr  0.98193176  0.53354112  0.37318816     2.54700
O148        O  0.97921541  0.58648580  0.37588119    -0.78800
O149        O  0.98337011  0.53362647  0.30020504    -0.92200
Zr150      Zr  0.98199438  0.53396439  0.49245230     2.64700
O151        O  0.98027681  0.58744824  0.48959141    -0.97200
O152        O  0.98440884  0.53564466  0.06533287    -0.79200
O153        O  0.01534400  0.55117591  0.43278303    -0.82600
O154        O  0.94866392  0.51780880  0.43283730    -2.17300
O155        O  0.92375803  0.40183161  0.35244764    -0.66000
O156        O  0.88401250  0.40783515  0.38924944    -0.50500
C157        C  0.89261992  0.39318361  0.36219451     0.72800
O158        O  0.04055212  0.45851407  0.01132842    -0.58900
O159        O  0.08061055  0.50590094  0.47656618    -0.50800
C160        C  0.07185538  0.48146656  0.50217826     0.74600
O161        O  0.92407618  0.40306210  0.01515129    -0.70300
O162        O  0.88427242  0.40847316  0.47781610    -0.48900
C163        C  0.89296941  0.39437624  0.50545475     0.76000
O164        O  0.04043049  0.45862633  0.35440758    -0.65600
O165        O  0.08038811  0.50573681  0.38929013    -0.52800
C166        C  0.07159940  0.48139684  0.36354771     0.74400
Zr167      Zr  0.98219773  0.44468852  0.37362523     2.77500
O168        O  0.98198283  0.39018185  0.37574582    -0.96300
O169        O  0.98362349  0.44601392  0.30069413    -0.77200
Zr170      Zr  0.98241814  0.44519947  0.49297806     2.70100
O171        O  0.98037413  0.38984857  0.49053125    -0.78400
O172        O  0.98543426  0.44728776  0.06586060    -0.97500
Zr173      Zr  0.04810890  0.52257306  0.43298527     2.21500
Zr174      Zr  0.91664793  0.45641428  0.43311922     2.11100
O175        O  0.94902657  0.42737302  0.43339470    -2.46200
O176        O  0.01566718  0.46117790  0.43323864    -0.78200
O177        O  0.94880399  0.47240140  0.37245061    -0.70400
O178        O  0.01556466  0.50636916  0.49365917    -2.31400
O179        O  0.01539599  0.50587390  0.37247198    -2.27600
O180        O  0.94894680  0.47283912  0.49374415    -0.72200
H181        H  0.93348192  0.52734115  0.43269727     0.79800
H182        H  0.03049846  0.51395926  0.01679424     0.80900
H183        H  0.93400125  0.40263656  0.43361781     0.83100
H184        H  0.03034001  0.51334014  0.34931437     0.80800
H185        H  0.97194102  0.51109769  0.07354427     0.43800
H186        H  0.96491567  0.44854077  0.07446946     0.42800
H187        H  0.99502476  0.39180587  0.46731324     0.42400
H188        H  0.96034311  0.37400673  0.38977886     0.40400
H189        H  0.97760731  0.46381425  0.29341186     0.43500
H190        H  0.00486685  0.53361354  0.29322546     0.38300
H191        H  0.99116914  0.59775863  0.40112186     0.44400
H192        H  0.95926246  0.58171898  0.47398917     0.40800
H193        H  0.97807154  0.38208309  0.34760114     0.45700
H194        H  0.98789541  0.55690399  0.29251786     0.44500
H195        H  0.97519695  0.59116095  0.01753134     0.44600
H196        H  0.98037447  0.42391274  0.07391408     0.45000
O197        O  0.51171843  0.93423358  0.35490912    -0.73900
O198        O  0.46460732  0.89401724  0.38953822    -0.52800
C199        C  0.48915027  0.90300007  0.36404529     0.79800
O200        O  0.56712072  0.05089265  0.01408161    -0.58500
O201        O  0.56094950  0.09035365  0.47698231    -0.51500
C202        C  0.57559347  0.08191697  0.50424871     0.71800
O203        O  0.51192594  0.93458528  0.01158564    -0.73100
O204        O  0.46502491  0.89433574  0.47668455    -0.53600
C205        C  0.48945289  0.90337525  0.50236883     0.77800
O206        O  0.56631861  0.05068262  0.35132242    -0.58200
O207        O  0.56028156  0.09027968  0.38843321    -0.51300
C208        C  0.57474420  0.08175013  0.36106192     0.74400
Zr209      Zr  0.52441880  0.99230932  0.37312044     2.54700
O210        O  0.58016237  0.99516339  0.37557338    -0.78800
O211        O  0.52300274  0.99139302  0.30013025    -0.92200
Zr212      Zr  0.52491748  0.99251723  0.49233433     2.64700
O213        O  0.57988599  0.99376025  0.48862855    -0.97200
O214        O  0.52370329  0.99084264  0.06533008    -0.79200
O215        O  0.50881602  0.95900030  0.43279745    -0.82600
O216        O  0.54186097  0.02574177  0.43266364    -2.17300
O217        O  0.45144441  0.05021595  0.35140144    -0.66000
O218        O  0.49635663  0.09009197  0.38913299    -0.50500
C219        C  0.47358265  0.08139020  0.36148502     0.72800
O220        O  0.39085881  0.93348679  0.01125235    -0.58900
O221        O  0.39862627  0.89367480  0.47690599    -0.50800
C222        C  0.38285158  0.90239616  0.50239252     0.74600
O223        O  0.45113851  0.05007915  0.01482612    -0.70300
O224        O  0.49641038  0.08995251  0.47749433    -0.48900
C225        C  0.47348467  0.08126442  0.50497350     0.76000
O226        O  0.39029365  0.93327642  0.35575363    -0.65600
O227        O  0.39806457  0.89346523  0.39012582    -0.52800
C228        C  0.38211949  0.90214030  0.36482299     0.74400
Zr229      Zr  0.43513827  0.99176312  0.37349307     2.77500
O230        O  0.38139650  0.99309512  0.37526654    -0.96300
O231        O  0.43474115  0.98961378  0.30057536    -0.77200
Zr232      Zr  0.43551977  0.99188492  0.49279935     2.70100
O233        O  0.38211802  0.99377906  0.49068195    -0.78400
O234        O  0.43511598  0.98919373  0.06575928    -0.97500
Zr235      Zr  0.44750443  0.92617884  0.43309113     2.21500
Zr236      Zr  0.51233869  0.05760862  0.43307640     2.11100
O237        O  0.45092823  0.02512220  0.43312788    -2.46200
O238        O  0.41833695  0.95844149  0.43320087    -0.78200
O239        O  0.49620127  0.02522238  0.37256951    -0.70400
O240        O  0.46379419  0.95895835  0.49351832    -2.31400
O241        O  0.46327060  0.95866352  0.37237433    -2.27600
O242        O  0.49662441  0.02540051  0.49365688    -0.72200
H243        H  0.56655537  0.04098759  0.43247573     0.79800
H244        H  0.45646453  0.94403776  0.01679241     0.80900
H245        H  0.44115723  0.04009868  0.43322396     0.83100
H246        H  0.45575114  0.94363086  0.34928502     0.80800
H247        H  0.51162235  0.00344454  0.07297231     0.43800
H248        H  0.45721636  0.00946834  0.07403252     0.42800
H249        H  0.37230260  0.98455549  0.46390694     0.42400
H250        H  0.38746383  0.01545305  0.38788693     0.40400
H251        H  0.45932802  0.99972197  0.29307559     0.43500
H252        H  0.50187295  0.96957947  0.29302877     0.38300
H253        H  0.57820931  0.98006968  0.39831500     0.44400
H254        H  0.59514826  0.01470828  0.47290711     0.40800
H255        H  0.37673094  0.99580757  0.34688340     0.45700
H256        H  0.54222383  0.98767173  0.29222035     0.44500
H257        H  0.58900585  0.99890312  0.01640135     0.44600
H258        H  0.41728191  0.99488099  0.07399855     0.45000
C259        C  0.47900200  0.37064935  0.02520652    -0.17100
C260        C  0.47996717  0.34741186  0.04226660     0.06900
C261        C  0.48185644  0.32049105  0.06192216     0.08800
C262        C  0.48333448  0.29753423  0.07898733    -0.18000
C263        C  0.47301287  0.10878407  0.02639254    -0.17100
C264        C  0.47425371  0.13316041  0.04331612     0.06900
C265        C  0.47694214  0.16245716  0.06258666     0.08800
C266        C  0.47956137  0.18750307  0.07934049    -0.18000
C267        C  0.48280467  0.29754123  0.28733482    -0.17100
C268        C  0.48136679  0.32061194  0.30414827     0.06900
C269        C  0.47980271  0.34783808  0.32344815     0.08800
C270        C  0.47917873  0.37133722  0.34028309    -0.18000
C271        C  0.47921875  0.18760757  0.28756358    -0.17100
C272        C  0.47668464  0.16260985  0.30434928     0.06900
C273        C  0.47416600  0.13334536  0.32350656     0.08800
C274        C  0.47302465  0.10894829  0.34025777    -0.18000
C275        C  0.60993194  0.50247117  0.34152175    -0.17100
C276        C  0.63312481  0.50125885  0.32474482     0.06900
C277        C  0.65961892  0.49858642  0.30521305     0.08800
C278        C  0.68189048  0.49602053  0.28802909    -0.18000
C279        C  0.78774475  0.49178824  0.28734506    -0.17100
C280        C  0.81216454  0.49302013  0.30402696     0.06900
C281        C  0.84095169  0.49459360  0.32314676     0.08800
C282        C  0.86511671  0.49535131  0.33991324    -0.18000
C283        C  0.68071401  0.49466094  0.07957739    -0.17100
C284        C  0.65813609  0.49697475  0.06282539     0.06900
C285        C  0.63160477  0.49965415  0.04345639     0.08800
C286        C  0.60864084  0.50106106  0.02640181    -0.18000
C287        C  0.78789317  0.49269264  0.07918675    -0.17100
C288        C  0.81222237  0.49384170  0.06223653     0.06900
C289        C  0.84082837  0.49512496  0.04276406     0.08800
C290        C  0.86486007  0.49568547  0.02576350    -0.18000
C291        C  0.60378758  0.10964806  0.02511457    -0.17100
C292        C  0.62724280  0.13373607  0.04203823     0.06900
C293        C  0.65451227  0.16229769  0.06159437     0.08800
C294        C  0.67769731  0.18651527  0.07866346    -0.18000
C295        C  0.86542453  0.36628226  0.02666915    -0.17100
C296        C  0.84114822  0.34295064  0.04344129     0.06900
C297        C  0.81204419  0.31599561  0.06251968     0.08800
C298        C  0.78719064  0.29326882  0.07918007    -0.18000
C299        C  0.60269250  0.10932354  0.33975512    -0.17100
C300        C  0.62614563  0.13332546  0.32278000     0.06900
C301        C  0.65358350  0.16189324  0.30353221     0.08800
C302        C  0.67695265  0.18622358  0.28688675    -0.18000
C303        C  0.78666121  0.29277854  0.28762450    -0.17100
C304        C  0.81154679  0.31516285  0.30466822     0.06900
C305        C  0.84070512  0.34173590  0.32420330     0.08800
C306        C  0.86502478  0.36492705  0.34114829    -0.18000
C307        C  0.28100538  0.47821590  0.28791950    -0.17100
C308        C  0.30493423  0.47949035  0.30599178     0.06900
C309        C  0.33318956  0.48137732  0.32702353     0.08800
C310        C  0.35758817  0.48323570  0.34461289    -0.18000
C311        C  0.17228895  0.47688916  0.28790094    -0.17100
C312        C  0.14906973  0.47741558  0.30557827     0.06900
C313        C  0.12192620  0.47839169  0.32593857     0.08800
C314        C  0.09885698  0.47956687  0.34315224    -0.18000
C315        C  0.35731363  0.48258949  0.02234126    -0.17100
C316        C  0.33285501  0.48082642  0.03969995     0.06900
C317        C  0.30459298  0.47923928  0.06042482     0.08800
C318        C  0.28073704  0.47823870  0.07838632    -0.18000
C319        C  0.17180946  0.47651706  0.07893776    -0.17100
C320        C  0.14862827  0.47698035  0.06109289     0.06900
C321        C  0.12173741  0.47803844  0.04023213     0.08800
C322        C  0.09890772  0.47934730  0.02260859    -0.18000
C323        C  0.09841293  0.61727327  0.02154252    -0.17100
C324        C  0.12104649  0.64167945  0.03901654     0.06900
C325        C  0.14758269  0.66982439  0.06000689     0.08800
C326        C  0.17040469  0.69353056  0.07817030    -0.18000
C327        C  0.35370183  0.87504051  0.02264480    -0.17100
C328        C  0.32962432  0.85202394  0.04009853     0.06900
C329        C  0.30171576  0.82501407  0.06081854     0.08800
C330        C  0.27808421  0.80184569  0.07865817    -0.18000
C331        C  0.17021316  0.69357771  0.28784945    -0.17100
C332        C  0.14736951  0.66969636  0.30575300     0.06900
C333        C  0.12080988  0.64129208  0.32634988     0.08800
C334        C  0.09819043  0.61675710  0.34364396    -0.18000
C335        C  0.27792520  0.80181883  0.28765237    -0.17100
C336        C  0.30140159  0.82489552  0.30578997     0.06900
C337        C  0.32906373  0.85181891  0.32692414     0.08800
C338        C  0.35301880  0.87480683  0.34457756    -0.18000
C339        C  0.49870840  0.69743268  0.28797002    -0.17100
C340        C  0.49807421  0.67391321  0.30624890     0.06900
C341        C  0.49675511  0.64599663  0.32738418     0.08800
C342        C  0.49529777  0.62177384  0.34491303    -0.18000
C343        C  0.49149207  0.87596539  0.34385178    -0.17100
C344        C  0.49334610  0.85337394  0.32641444     0.06900
C345        C  0.49522262  0.82693102  0.30561093     0.08800
C346        C  0.49647850  0.80422911  0.28767215    -0.18000
C347        C  0.49831661  0.69723918  0.07859533    -0.17100
C348        C  0.49771503  0.67353542  0.06081844     0.06900
C349        C  0.49640640  0.64538711  0.04029720     0.08800
C350        C  0.49496140  0.62108921  0.02299976    -0.18000
C351        C  0.49167144  0.87631659  0.02280810    -0.17100
C352        C  0.49329813  0.85357979  0.04022324     0.06900
C353        C  0.49478477  0.82684888  0.06088948     0.08800
C354        C  0.49576975  0.80394140  0.07871833    -0.18000
C355        C  0.49834715  0.72502509  0.60013516     0.81600
N356        N  0.49859099  0.72510252  0.64078354    -0.76700
C357        C  0.49790492  0.75097608  0.66128915     0.84000
N358        N  0.49693006  0.77674921  0.64085688    -0.76700
C359        C  0.49671402  0.77668393  0.60020296     0.84100
N360        N  0.49738176  0.75079474  0.57983046    -0.78400
C361        C  0.49860833  0.72511448  0.76647412     0.81600
N362        N  0.49861922  0.72506537  0.72580644    -0.76700
C363        C  0.49805437  0.75102252  0.70528782     0.84000
N364        N  0.49741637  0.77695805  0.72571102    -0.76700
C365        C  0.49742393  0.77699692  0.76635118     0.84100
N366        N  0.49797377  0.75105975  0.78673864    -0.78400
C367        C  0.25004119  0.77410171  0.76616729     0.81600
N368        N  0.25007670  0.77399595  0.72551162    -0.76700
C369        C  0.22382803  0.74772320  0.70506287     0.84000
N370        N  0.19757163  0.72151420  0.72557663    -0.76700
C371        C  0.19752809  0.72163752  0.76624364     0.84100
N372        N  0.22377605  0.74791381  0.78653335    -0.78400
C373        C  0.25023879  0.77409658  0.59999775     0.81600
N374        N  0.22414519  0.74778988  0.57955758    -0.76700
C375        C  0.19791470  0.72143233  0.59979000     0.84000
N376        N  0.19780770  0.72136266  0.64046106    -0.76700
C377        C  0.22390467  0.74768345  0.66103403     0.84100
N378        N  0.25012292  0.77402336  0.64064677    -0.78400
C379        C  0.19987757  0.47672801  0.60020108     0.81600
N380        N  0.19971200  0.47627931  0.64085469    -0.76700
C381        C  0.22605788  0.47644374  0.66129111     0.84000
N382        N  0.25260794  0.47709179  0.64076901    -0.76700
C383        C  0.25278755  0.47752675  0.60010360     0.84100
N384        N  0.22643828  0.47739141  0.57981784    -0.78400
C385        C  0.19969899  0.47617284  0.76648481     0.81600
N386        N  0.19960091  0.47597891  0.72582038    -0.76700
C387        C  0.22600020  0.47629376  0.70532505     0.84000
N388        N  0.25254400  0.47688776  0.72579271    -0.76700
C389        C  0.25266004  0.47709541  0.76645298     0.84100
N390        N  0.22625850  0.47678053  0.78680134    -0.78400
C391        C  0.75772832  0.26626234  0.76631291     0.81600
N392        N  0.73140981  0.23994593  0.78653749    -0.76700
C393        C  0.70454097  0.21449004  0.76602145     0.84000
N394        N  0.70410456  0.21524850  0.72542496    -0.76700
C395        C  0.73039636  0.24152355  0.70513370     0.84100
N396        N  0.75722496  0.26700169  0.72570046    -0.78400
C397        C  0.75805866  0.26673470  0.60028069     0.81600
N398        N  0.73193172  0.24045234  0.57980143    -0.76700
C399        C  0.70502654  0.21479599  0.60005183     0.84000
N400        N  0.70437548  0.21534403  0.64066350    -0.76700
C401        C  0.73049766  0.24160547  0.66120265     0.84100
N402        N  0.75735167  0.26725983  0.64088246    -0.78400
C403        C  0.70742113  0.49248013  0.60053953     0.81600
N404        N  0.73382961  0.49285265  0.58009985    -0.76700
C405        C  0.75950350  0.49165970  0.60038923     0.84000
N406        N  0.75882537  0.49029782  0.64099927    -0.76700
C407        C  0.73245503  0.48999215  0.66149187     0.84100
N408        N  0.70679819  0.49114327  0.64113007    -0.78400
C409        C  0.70802264  0.49304343  0.76660014     0.81600
N410        N  0.73409938  0.49258987  0.78681635    -0.76700
C411        C  0.75925906  0.49065567  0.76631980     0.84000
N412        N  0.75848646  0.48942644  0.72573153    -0.76700
C413        C  0.73245812  0.48991256  0.70542433     0.84100
N414        N  0.70724708  0.49177930  0.72597961    -0.78400
C415        C  0.48146598  0.21655756  0.76638052     0.81600
N416        N  0.48158427  0.24292813  0.78663456    -0.76700
C417        C  0.48375897  0.27018216  0.76619129     0.84000
N418        N  0.48560595  0.27094765  0.72562034    -0.76700
C419        C  0.48544643  0.24459098  0.70529171     0.84100
N420        N  0.48331068  0.21737225  0.72579744    -0.78400
C421        C  0.48296481  0.21701192  0.60038299     0.81600
N422        N  0.48420976  0.21768208  0.64098744    -0.76700
C423        C  0.48578799  0.24470132  0.66134887     0.84000
N424        N  0.48596391  0.27100797  0.64084277    -0.76700
C425        C  0.48472752  0.27038946  0.60022780     0.84100
N426        N  0.48309757  0.24331386  0.57994723    -0.78400
O427        O  0.51612202  0.58392911  0.51140719    -0.73900
O428        O  0.46833505  0.57612324  0.97745858    -0.52800
C429        C  0.49300037  0.59196339  0.00270856     0.79800
O430        O  0.57272533  0.52405027  0.85256283    -0.58500
O431        O  0.56718778  0.47863103  0.88969252    -0.51500
C432        C  0.58163840  0.50179065  0.86250795     0.71800
O433        O  0.51652986  0.58458606  0.85641935    -0.73100
O434        O  0.46877569  0.57668892  0.89045026    -0.53600
C435        C  0.49354803  0.59273900  0.86536202     0.77800
O436        O  0.57225884  0.52335344  0.51445561    -0.58200
O437        O  0.56618891  0.47746829  0.97792592    -0.51300
C438        C  0.58075089  0.50070839  0.00499067     0.74400
Zr439      Zr  0.52962653  0.53911887  0.99316855     2.54700
O440        O  0.58456912  0.59292516  0.99136721    -0.78800
O441        O  0.52897067  0.53961338  0.56596358    -0.92200
Zr442      Zr  0.52984592  0.53953438  0.87396916     2.64700
O443        O  0.58457864  0.59365841  0.87481652    -0.97200
O444        O  0.52751107  0.53936040  0.80107348    -0.79200
O445        O  0.51336706  0.55638667  0.93365868    -0.82600
O446        O  0.54738960  0.52363114  0.93351917    -2.17300
O447        O  0.45694312  0.40732556  0.51390018    -0.66000
O448        O  0.50245795  0.41336711  0.97679582    -0.50500
C449        C  0.47945038  0.39879592  0.00413413     0.72800
O450        O  0.39576250  0.46317054  0.85557884    -0.58900
O451        O  0.40270422  0.51034931  0.89010395    -0.50800
C452        C  0.38712323  0.48577982  0.86464537     0.74600
O453        O  0.45746619  0.40841232  0.85136419    -0.70300
O454        O  0.50301193  0.41422080  0.88843558    -0.48900
C455        C  0.48000430  0.39982349  0.86105846     0.76000
O456        O  0.39577730  0.46272217  0.51134417    -0.65600
O457        O  0.40237692  0.50974010  0.97680583    -0.52800
C458        C  0.38680198  0.48508396  0.00217728     0.74400
Zr459      Zr  0.44084944  0.44980134  0.99283902     2.77500
O460        O  0.38712446  0.39476498  0.99042333    -0.96300
O461        O  0.44137238  0.45223191  0.56574166    -0.77200
Zr462      Zr  0.44102580  0.45028868  0.87370738     2.70100
O463        O  0.38820615  0.39460177  0.87749249    -0.78400
O464        O  0.43950533  0.45179011  0.80084782    -0.94500
Zr465      Zr  0.45194621  0.52729357  0.93360826     2.21500
Zr466      Zr  0.51835748  0.46216482  0.93322057     2.11100
O467        O  0.45700027  0.43274419  0.93313041    -2.46200
O468        O  0.42344873  0.46597769  0.93336416    -0.78200
O469        O  0.50200160  0.47799585  0.99388915    -0.70400
O470        O  0.46864178  0.51144191  0.87296717    -2.31400
O471        O  0.46841482  0.51095583  0.99407357    -2.27600
O472        O  0.50217598  0.47841802  0.87274274    -0.72200
H473        H  0.57213445  0.53340206  0.93363956     0.79800
H474        H  0.46112941  0.51891932  0.84983453     0.80900
H475        H  0.44751266  0.40804070  0.93289844     0.83100
H476        H  0.46096441  0.51844415  0.51714152     0.80800
H477        H  0.52048196  0.51535777  0.79340445     0.43800
H478        H  0.46260603  0.45637953  0.79228701     0.42800
H479        H  0.37332268  0.39832616  0.89640135     0.42400
H480        H  0.39101660  0.38107291  0.96993172     0.40400
H481        H  0.46605993  0.46309180  0.57310815     0.43500
H482        H  0.50694982  0.53846188  0.57312721     0.38300
H483        H  0.58306617  0.60507697  0.96731953     0.44400
H484        H  0.60036160  0.58869376  0.89054007     0.40800
H485        H  0.38585336  0.38454590  0.51773675     0.45700
H486        H  0.54699110  0.56329146  0.57343501     0.44500
H487        H  0.59320534  0.59655938  0.84694693     0.44600
H488        H  0.42365326  0.42755643  0.79289439     0.45000
O489        O  0.03999402  0.57859379  0.85464656    -0.73900
O490        O  0.08022671  0.57192323  0.88956525    -0.52800
C491        C  0.07122199  0.58735957  0.86390233     0.79800
O492        O  0.92352872  0.51744418  0.51437365    -0.58500
O493        O  0.88382759  0.47212920  0.97711966    -0.51500
C494        C  0.89241897  0.49511439  0.00451406     0.71800
O495        O  0.04011200  0.57897558  0.51087924    -0.73100
O496        O  0.08031069  0.57209557  0.97614556    -0.53600
C497        C  0.07135326  0.58781859  0.00144669     0.77800
O498        O  0.92369374  0.51746072  0.85130673    -0.58200
O499        O  0.88410740  0.47181501  0.88838507    -0.51300
C500        C  0.89263594  0.49484039  0.86106086     0.74400
Zr501      Zr  0.98193615  0.53354550  0.87318053     2.54700
O502        O  0.97940746  0.58659465  0.87579347    -0.78800
O503        O  0.98335023  0.53358944  0.80020254    -0.92200
Zr504      Zr  0.98200225  0.53400273  0.99243177     2.64700
O505        O  0.98007235  0.58738167  0.98962174    -0.97200
O506        O  0.98408834  0.53577176  0.56536122    -0.79200
O507        O  0.01534748  0.55115728  0.93277243    -0.82600
O508        O  0.94866171  0.51784845  0.93282598    -2.17300
O509        O  0.92372413  0.40195095  0.85235501    -0.66000
O510        O  0.88399464  0.40795354  0.88919717    -0.50500
C511        C  0.89259256  0.39333343  0.86209343     0.72800
O512        O  0.04069682  0.45866415  0.51129256    -0.58900
O513        O  0.08049750  0.50572205  0.97658734    -0.50800
C514        C  0.07171106  0.48127208  0.00218934     0.74600
O515        O  0.92412041  0.40320489  0.51533835    -0.70300
O516        O  0.88423088  0.40851512  0.97784765    -0.48900
C517        C  0.89293094  0.39430853  0.00535075     0.76000
O518        O  0.04039835  0.45838711  0.85476083    -0.65600
O519        O  0.08038499  0.50561329  0.88945711    -0.52800
C520        C  0.07157583  0.48116132  0.86386727     0.74400
Zr521      Zr  0.98216552  0.44468015  0.87365589     2.77500
O522        O  0.98172329  0.39005449  0.87573493    -0.96300
O523        O  0.98383682  0.44634851  0.80073855    -0.77200
Zr524      Zr  0.98236059  0.44518639  0.99296647     2.70100
O525        O  0.98050096  0.38992080  0.99037067    -0.78400
O526        O  0.98555404  0.44723262  0.56587135    -0.97500
Zr527      Zr  0.04810766  0.52255172  0.93300528     2.21500
Zr528      Zr  0.91663079  0.45645432  0.93315899     2.11100
O529        O  0.94896208  0.42736975  0.93340036    -2.46200
O530        O  0.01562370  0.46117270  0.93325737    -0.78200
O531        O  0.94879872  0.47241624  0.87250865    -0.70400
O532        O  0.01553567  0.50636462  0.99364308    -2.31400
O533        O  0.01539886  0.50586271  0.87248627    -2.27600
O534        O  0.94893668  0.47287499  0.99376003    -0.72200
H535        H  0.93348987  0.52739276  0.93267711     0.79800
H536        H  0.03052713  0.51395974  0.51681072     0.80900
H537        H  0.93392585  0.40263453  0.93360658     0.83100
H538        H  0.03035235  0.51330870  0.84933644     0.80800
H539        H  0.97150780  0.51124631  0.57365109     0.43800
H540        H  0.96520988  0.44878716  0.57451947     0.42800
H541        H  0.99451951  0.39166566  0.96658911     0.42400
H542        H  0.95967160  0.37370625  0.88889939     0.40400
H543        H  0.97755755  0.46397443  0.79353497     0.43500
H544        H  0.00480456  0.53349060  0.79322857     0.38300
H545        H  0.99110028  0.59771207  0.90120880     0.44400
H546        H  0.95865546  0.58142011  0.97475555     0.40800
H547        H  0.97863018  0.38237945  0.84744810     0.45700
H548        H  0.98795767  0.55689183  0.79250251     0.44500
H549        H  0.97469053  0.59087504  0.51732003     0.44600
H550        H  0.98019865  0.42375873  0.57389630     0.45000
O551        O  0.51162136  0.93423287  0.85488093    -0.73900
O552        O  0.46451396  0.89401886  0.88951090    -0.52800
C553        C  0.48902907  0.90300496  0.86398585     0.79800
O554        O  0.56708111  0.05085733  0.51416397    -0.58500
O555        O  0.56091034  0.09034482  0.97689771    -0.51500
C556        C  0.57559690  0.08194229  0.00414372     0.71800
O557        O  0.51194334  0.93462304  0.51152493    -0.73100
O558        O  0.46497307  0.89431086  0.97677824    -0.53600
C559        C  0.48941098  0.90333998  0.00244335     0.77800
O560        O  0.56626365  0.05065932  0.85134697    -0.58200
O561        O  0.56017253  0.09023124  0.88843566    -0.51300
C562        C  0.57466279  0.08172131  0.86107914     0.74400
Zr563      Zr  0.52439021  0.99229336  0.87319167     2.54700
O564        O  0.58010207  0.99507015  0.87555143    -0.78800
O565        O  0.52291602  0.99131066  0.80021152    -0.92200
Zr566      Zr  0.52490497  0.99249577  0.99241509     2.64700
O567        O  0.57983654  0.99364701  0.98872048    -0.97200
O568        O  0.52391991  0.99083830  0.56524260    -0.79200
O569        O  0.50880837  0.95898043  0.93287455    -0.82600
O570        O  0.54181677  0.02571394  0.93273405    -2.17300
O571        O  0.45123473  0.05009794  0.85149324    -0.66000
O572        O  0.49600975  0.08998570  0.88936887    -0.50500
C573        C  0.47326541  0.08127845  0.86167539     0.72800
O574        O  0.39097840  0.93353964  0.51131084    -0.58900
O575        O  0.39851119  0.89364381  0.97680543    -0.50800
C576        C  0.38271190  0.90234979  0.00227085     0.74600
O577        O  0.45116743  0.05010314  0.51481287    -0.70300
O578        O  0.49650736  0.08992657  0.97765690    -0.48900
C579        C  0.47351650  0.08124076  0.00505153     0.76000
O580        O  0.39036370  0.93312712  0.85571807    -0.65600
O581        O  0.39816362  0.89335173  0.89012113    -0.52800
C582        C  0.38223129  0.90199747  0.86477244     0.74400
Zr583      Zr  0.43507130  0.99167239  0.87353841     2.77500
O584        O  0.38122856  0.99280537  0.87515216    -0.96300
O585        O  0.43472290  0.98968867  0.80061708    -0.77200
Zr586      Zr  0.43547109  0.99183376  0.99286378     2.70100
O587        O  0.38214180  0.99385687  0.99050087    -0.78400
O588        O  0.43528703  0.98944706  0.56569734    -0.97500
Zr589      Zr  0.44749648  0.92616637  0.93316147     2.21500
Zr590      Zr  0.51225293  0.05754531  0.93309978     2.11100
O591        O  0.45084819  0.02503270  0.93317582    -2.46200
O592        O  0.41828760  0.95838260  0.93327201    -0.78200
O593        O  0.49614083  0.02517743  0.87258199    -0.70400
O594        O  0.46377813  0.95893587  0.99358463    -2.31400
O595        O  0.46325235  0.95863277  0.87244407    -2.27600
O596        O  0.49657570  0.02534837  0.99369175    -0.72200
H597        H  0.56651005  0.04096741  0.93253451     0.79800
H598        H  0.45649166  0.94406970  0.51673411     0.80900
H599        H  0.44106222  0.03999610  0.93327930     0.83100
H600        H  0.45574237  0.94359990  0.84935605     0.80800
H601        H  0.51132956  0.00291009  0.57297145     0.43800
H602        H  0.45731408  0.00984933  0.57390415     0.42800
H603        H  0.37191682  0.98377459  0.96413837     0.42400
H604        H  0.38717295  0.01506426  0.88795302     0.40400
H605        H  0.45939596  0.00088364  0.79308237     0.43500
H606        H  0.50140855  0.96984074  0.79315856     0.38300
H607        H  0.57796537  0.97953812  0.89787599     0.44400
H608        H  0.59520185  0.01473118  0.97326501     0.40800
H609        H  0.37669325  0.99568602  0.84677309     0.45700
H610        H  0.54167070  0.98686582  0.79230493     0.44500
H611        H  0.58918010  0.99929855  0.51624229     0.44600
H612        H  0.41733217  0.99497035  0.57391355     0.45000
C613        C  0.47902221  0.37060338  0.52499746    -0.17100
C614        C  0.48007126  0.34741542  0.54208596     0.06900
C615        C  0.48209271  0.32059129  0.56182834     0.08800
C616        C  0.48367833  0.29771062  0.57895276    -0.18000
C617        C  0.47303485  0.10880903  0.52638349    -0.17100
C618        C  0.47444550  0.13324621  0.54335444     0.06900
C619        C  0.47739889  0.16266544  0.56260713     0.08800
C620        C  0.48017434  0.18779465  0.57931847    -0.18000
C621        C  0.48279963  0.29764628  0.78718148    -0.17100
C622        C  0.48150279  0.32086087  0.80382191     0.06900
C623        C  0.48004924  0.34820595  0.82296355     0.08800
C624        C  0.47945620  0.37172506  0.83978543    -0.18000
C625        C  0.47852185  0.18733525  0.78762825    -0.17100
C626        C  0.47603121  0.16236140  0.80445843     0.06900
C627        C  0.47364754  0.13316471  0.82368972     0.08800
C628        C  0.47262013  0.10882613  0.84048424    -0.18000
C629        C  0.60996371  0.50256195  0.84156495    -0.17100
C630        C  0.63313540  0.50133240  0.82474449     0.06900
C631        C  0.65957652  0.49857007  0.80518726     0.08800
C632        C  0.68178945  0.49589765  0.78799873    -0.18000
C633        C  0.78746479  0.49129140  0.78731158    -0.17100
C634        C  0.81190649  0.49255981  0.80399814     0.06900
C635        C  0.84078009  0.49428981  0.82310732     0.08800
C636        C  0.86503173  0.49521055  0.83986683    -0.18000
C637        C  0.68063869  0.49457367  0.57948867    -0.17100
C638        C  0.65802883  0.49683605  0.56274665     0.06900
C639        C  0.63146642  0.49948364  0.54342120     0.08800
C640        C  0.60850833  0.50091666  0.52639634    -0.18000
C641        C  0.78787251  0.49269746  0.57912492    -0.17100
C642        C  0.81220724  0.49383908  0.56218599     0.06900
C643        C  0.84081387  0.49510034  0.54272255     0.08800
C644        C  0.86483913  0.49563832  0.52572189    -0.18000
C645        C  0.60379120  0.10958852  0.52525368    -0.17100
C646        C  0.62725965  0.13366809  0.54217398     0.06900
C647        C  0.65451496  0.16226838  0.56169687     0.08800
C648        C  0.67766227  0.18654487  0.57873332    -0.18000
C649        C  0.86543904  0.36640165  0.52683342    -0.17100
C650        C  0.84109053  0.34312651  0.54359167     0.06900
C651        C  0.81189687  0.31622183  0.56262386     0.08800
C652        C  0.78700547  0.29350026  0.57925118    -0.18000
C653        C  0.60262227  0.10931391  0.83979839    -0.17100
C654        C  0.62609960  0.13332937  0.82286333     0.06900
C655        C  0.65357307  0.16189690  0.80364600     0.08800
C656        C  0.67696857  0.18621021  0.78700072    -0.18000
C657        C  0.78668465  0.29278965  0.78763230    -0.17100
C658        C  0.81155080  0.31527113  0.80459443     0.06900
C659        C  0.84068498  0.34193247  0.82405460     0.08800
C660        C  0.86499346  0.36513504  0.84099355    -0.18000
C661        C  0.28101194  0.47827489  0.78791454    -0.17100
C662        C  0.30504161  0.47967490  0.80588336     0.06900
C663        C  0.33338216  0.48163682  0.82679129     0.08800
C664        C  0.35778563  0.48347903  0.84435096    -0.18000
C665        C  0.17199288  0.47632107  0.78797439    -0.17100
C666        C  0.14884066  0.47686556  0.80579506     0.06900
C667        C  0.12181291  0.47793649  0.82632358     0.08800
C668        C  0.09881278  0.47921217  0.84357847    -0.18000
C669        C  0.35753914  0.48275131  0.52246552    -0.17100
C670        C  0.33312108  0.48101063  0.53989873     0.06900
C671        C  0.30487224  0.47942565  0.56065596     0.08800
C672        C  0.28099213  0.47841398  0.57857700    -0.18000
C673        C  0.17214004  0.47690032  0.57880937    -0.17100
C674        C  0.14896023  0.47740052  0.56099246     0.06900
C675        C  0.12200007  0.47840789  0.54020872     0.08800
C676        C  0.09909665  0.47962381  0.52262628    -0.18000
C677        C  0.09838713  0.61704414  0.52186586    -0.17100
C678        C  0.12103944  0.64145675  0.53930394     0.06900
C679        C  0.14762507  0.66966562  0.56014894     0.08800
C680        C  0.17048250  0.69344187  0.57818216    -0.18000
C681        C  0.35388194  0.87509930  0.52284908    -0.17100
C682        C  0.32979724  0.85207696  0.54029513     0.06900
C683        C  0.30183532  0.82503084  0.56091999     0.08800
C684        C  0.27815068  0.80183068  0.57866622    -0.18000
C685        C  0.17005200  0.69366008  0.78779324    -0.17100
C686        C  0.14724889  0.66977303  0.80573556     0.06900
C687        C  0.12077547  0.64134528  0.82639725     0.08800
C688        C  0.09821771  0.61678011  0.84371861    -0.18000
C689        C  0.27796891  0.80170015  0.78763744    -0.17100
C690        C  0.30151199  0.82472969  0.80575004     0.06900
C691        C  0.32922663  0.85163671  0.82684207     0.08800
C692        C  0.35318286  0.87463789  0.84448147    -0.18000
C693        C  0.49864874  0.69744219  0.78809847    -0.17100
C694        C  0.49813327  0.67399772  0.80643545     0.06900
C695        C  0.49696353  0.64618239  0.82767442     0.08800
C696        C  0.49557318  0.62201244  0.84527743    -0.18000
C697        C  0.49132326  0.87597857  0.84374068    -0.17100
C698        C  0.49317478  0.85338183  0.82633117     0.06900
C699        C  0.49508638  0.82692932  0.80562178     0.08800
C700        C  0.49637114  0.80421955  0.78775102    -0.18000
C701        C  0.49843567  0.69733346  0.57866472    -0.17100
C702        C  0.49783320  0.67363950  0.56084192     0.06900
C703        C  0.49649730  0.64549184  0.54025086     0.08800
C704        C  0.49504342  0.62119616  0.52291351    -0.18000
C705        C  0.49172651  0.87636365  0.52275385    -0.17100
C706        C  0.49333751  0.85362961  0.54020392     0.06900
C707        C  0.49477047  0.82688304  0.56091619     0.08800
C708        C  0.49571514  0.80396376  0.57877793    -0.18000
loop_ 
_geom_bond_atom_site_label_1 
_geom_bond_atom_site_label_2 
_geom_bond_distance 
_geom_bond_site_symmetry_2 
_ccdc_geom_bond_type 
C1            N2   1.356       .  A
C1            N6   1.356       .  A
C1          C347   1.432       .  S
N2            C3   1.358       .  A
C3            N4   1.359       .  A
C3            C9   1.468       .  S
N4            C5   1.356       .  A
C5            N6   1.356       .  A
C5          C354   1.434       .  S
C7            N8   1.357       .  A
C7           N12   1.356       .  A
C7          C339   1.433       .  S
N8            C9   1.359       .  A
C9           N10   1.358       .  A
N10          C11   1.356       .  A
C11          N12   1.356       .  A
C11         C346   1.433       .  S
C13          N14   1.357       .  A
C13          N18   1.356       .  A
C13         C335   1.434       .  S
N14          C15   1.359       .  A
C15          N16   1.359       .  A
C15          C23   1.469       .  S
N16          C17   1.357       .  A
C17          N18   1.356       .  A
C17         C331   1.434       .  S
C19          N20   1.356       .  A
C19          N24   1.356       .  A
C19         C330   1.434       .  S
N20          C21   1.356       .  A
C21          N22   1.357       .  A
C21         C326   1.435       .  S
N22          C23   1.359       .  A
C23          N24   1.359       .  A
C25          N26   1.356       .  A
C25          N30   1.357       .  A
C25         C319   1.435       .  S
N26          C27   1.359       .  A
C27          N28   1.359       .  A
C27          C33   1.469       .  S
N28          C29   1.357       .  A
C29          N30   1.357       .  A
C29         C318   1.435       .  S
C31          N32   1.357       .  A
C31          N36   1.357       .  A
C31         C311   1.435       .  S
N32          C33   1.359       .  A
C33          N34   1.359       .  A
N34          C35   1.357       .  A
C35          N36   1.357       .  A
C35         C307   1.435       .  S
C37          N38   1.357       .  A
C37          N42   1.356       .  A
C37         C303   1.434       .  S
N38          C39   1.357       .  A
C39          N40   1.355       .  A
C39         C302   1.432       .  S
N40          C41   1.357       .  A
C41          N42   1.358       .  A
C41          C47   1.466       .  S
C43          N44   1.357       .  A
C43          N48   1.356       .  A
C43         C298   1.433       .  S
N44          C45   1.357       .  A
C45          N46   1.356       .  A
C45         C294   1.434       .  S
N46          C47   1.358       .  A
C47          N48   1.357       .  A
C49          N50   1.357       .  A
C49          N54   1.355       .  A
C49         C283   1.432       .  S
N50          C51   1.357       .  A
C51          N52   1.356       .  A
C51         C287   1.434       .  S
N52          C53   1.358       .  A
C53          N54   1.357       .  A
C53          C59   1.466       .  S
C55          N56   1.357       .  A
C55          N60   1.356       .  A
C55         C278   1.433       .  S
N56          C57   1.357       .  A
C57          N58   1.355       .  A
C57         C279   1.431       .  S
N58          C59   1.357       .  A
C59          N60   1.358       .  A
C61          N62   1.357       .  A
C61          N66   1.356       .  A
C61         C271   1.433       .  S
N62          C63   1.357       .  A
C63          N64   1.356       .  A
C63         C267   1.434       .  S
N64          C65   1.358       .  A
C65          N66   1.358       .  A
C65          C69   1.466       .  S
C67          N68   1.356       .  A
C67          N72   1.357       .  A
C67         C266   1.434       .  S
N68          C69   1.358       .  A
C69          N70   1.358       .  A
N70          C71   1.356       .  A
C71          N72   1.357       .  A
C71         C262   1.434       .  S
O73        Zr439   2.442   1_554  S
O73         C429   1.286       .  A
O74        Zr111   2.420       .  S
O74          C75   1.284       .  A
C75         C704   1.433       .  S
C75         O427   1.286       .  A
O76         Zr88   2.449       .  S
O76          C78   1.288       .  A
O77        Zr112   2.411       .  S
O77          C78   1.282       .  A
C78         C275   1.432       .  S
O79         Zr88   2.442       .  S
O79          C81   1.287       .  A
O80        Zr111   2.420       .  S
O80          C81   1.284       .  A
C81         C342   1.433       .  S
O82        Zr439   2.447   1_554  S
O82         C438   1.287       .  A
O83        Zr112   2.410       .  S
O83          C84   1.282       .  A
C84         C640   1.431       .  S
C84         O436   1.287       .  A
Zr85        O427   2.442       .  S
Zr85        O436   2.447       .  S
Zr85         O86   2.435       .  S
Zr85        O441   2.435       .  S
Zr85         O91   2.373       .  S
Zr85         O92   2.371       .  S
Zr85        O115   2.373       .  S
Zr85        O117   2.375       .  S
O86         H129   0.990       .  S
O87        Zr439   2.435   1_554  S
O87         H128   0.990       .  S
O87         H132   0.990       .  S
Zr88         O89   2.436       .  S
Zr88         O90   2.435       .  S
Zr88         O92   2.372       .  S
Zr88         O91   2.373       .  S
Zr88        O116   2.377       .  S
Zr88        O118   2.373       .  S
O89         H130   0.990       .  S
O89         H133   0.990       .  S
O90         H123   0.990       .  S
O91        Zr111   2.382       .  S
O92        Zr112   2.383       .  S
O92         H119   0.966       .  S
O93        Zr459   2.448   1_554  S
O93         C449   1.287       .  A
O94        Zr112   2.415       .  S
O94          C95   1.283       .  A
C95         C613   1.434       .  S
C95         O447   1.288       .  A
O96        Zr108   2.442       .  S
O96          C98   1.286       .  A
O97        Zr111   2.422       .  S
O97          C98   1.284       .  A
C98         C310   1.434       .  S
O99        Zr108   2.448       .  S
O99         C101   1.287       .  A
O100       Zr112   2.415       .  S
O100        C101   1.283       .  A
C101        C270   1.433       .  S
O102       Zr459   2.443   1_554  S
O102        C458   1.287       .  A
O103       Zr111   2.424       .  S
O103        C104   1.285       .  A
C104        C669   1.435       .  S
C104        O456   1.286       .  A
Zr105       O447   2.449       .  S
Zr105       O456   2.442       .  S
Zr105       O106   2.435       .  S
Zr105       O461   2.434       .  S
Zr105       O113   2.372       .  S
Zr105       O114   2.373       .  S
Zr105       O117   2.374       .  S
Zr105       O115   2.372       .  S
O106        H126   0.990       .  S
O106        H485   0.990       .  S
O107       Zr459   2.434   1_554  S
O107        H127   0.990       .  S
Zr108       O109   2.433       .  S
Zr108       O110   2.434       .  S
Zr108       O114   2.373       .  S
Zr108       O113   2.371       .  S
Zr108       O118   2.372       .  S
Zr108       O116   2.373       .  S
O109        H125   0.990       .  S
O110        H124   0.990       .  S
O110        H134   0.990       .  S
Zr111       O114   2.378       .  S
Zr111       O116   2.385       .  S
Zr111       O117   2.384       .  S
Zr112       O113   2.379       .  S
Zr112       O115   2.377       .  S
Zr112       O118   2.377       .  S
O113        H121   0.966       .  S
O116        H120   0.966       .  S
O117        H476   0.966       .  S
H122        O471   0.966   1_554  S
H131        O460   0.990   1_554  S
O135       Zr147   2.441   1_455  S
O135        C137   1.286       .  A
O136       Zr173   2.423       .  S
O136        C137   1.285       .  A
C137        C334   1.434       .  S
O138       Zr504   2.448   1_554  S
O138        C494   1.287       .  A
O139       Zr174   2.415       .  S
O139        C140   1.283       .  A
C140        C644   1.434       .  S
C140        O492   1.287       .  A
O141       Zr504   2.442   1_454  S
O141        C497   1.286       .  A
O142       Zr173   2.423       .  S
O142        C143   1.285       .  A
C143        C677   1.434       .  S
C143        O495   1.286       .  A
O144       Zr147   2.442       .  S
O144        C146   1.286       .  A
O145       Zr174   2.413       .  S
O145        C146   1.283       .  A
C146        C282   1.430       .  S
Zr147       O148   2.434       .  S
Zr147       O149   2.436       .  S
Zr147       O153   2.373   1_655  S
Zr147       O154   2.372       .  S
Zr147       O177   2.372       .  S
Zr147       O179   2.372   1_655  S
O148        H191   0.990       .  S
O149        H190   0.990   1_655  S
O149        H194   0.990       .  S
Zr150       O492   2.448       .  S
Zr150       O495   2.442   1_655  S
Zr150       O151   2.434       .  S
Zr150       O506   2.434       .  S
Zr150       O154   2.372       .  S
Zr150       O153   2.374   1_655  S
Zr150       O178   2.374   1_655  S
Zr150       O180   2.372       .  S
O151        H192   0.990       .  S
O151        H549   0.990       .  S
O152       Zr504   2.434   1_554  S
O152        H185   0.990       .  S
O153       Zr173   2.380       .  S
O154       Zr174   2.380       .  S
O154        H181   0.966       .  S
O155       Zr167   2.450       .  S
O155        C157   1.288       .  A
O156       Zr174   2.414       .  S
O156        C157   1.283       .  A
C157        C306   1.434       .  S
O158       Zr524   2.441   1_454  S
O158        C514   1.286       .  A
O159       Zr173   2.423       .  S
O159        C160   1.285       .  A
C160        C676   1.435       .  S
C160        O512   1.287       .  A
O161       Zr524   2.447   1_554  S
O161        C517   1.287       .  A
O162       Zr174   2.412       .  S
O162        C163   1.283       .  A
C163        C649   1.432       .  S
C163        O515   1.287       .  A
O164       Zr167   2.443   1_455  S
O164        C166   1.287       .  A
O165       Zr173   2.422       .  S
O165        C166   1.285       .  A
C166        C314   1.434       .  S
Zr167       O168   2.435       .  S
Zr167       O169   2.434       .  S
Zr167       O175   2.373       .  S
Zr167       O176   2.375   1_655  S
Zr167       O179   2.374   1_655  S
Zr167       O177   2.372       .  S
O168        H188   0.990       .  S
O168        H193   0.990       .  S
O169        H189   0.990       .  S
Zr170       O512   2.443   1_655  S
Zr170       O515   2.448       .  S
Zr170       O171   2.433       .  S
Zr170       O526   2.435       .  S
Zr170       O176   2.374   1_655  S
Zr170       O175   2.373       .  S
Zr170       O180   2.372       .  S
Zr170       O178   2.373   1_655  S
O171        H187   0.990       .  S
O172       Zr524   2.435   1_554  S
O172        H186   0.990       .  S
O172        H196   0.990       .  S
Zr173       O176   2.380       .  S
Zr173       O178   2.385       .  S
Zr173       O179   2.384       .  S
Zr174       O175   2.381       .  S
Zr174       O177   2.377       .  S
Zr174       O180   2.379       .  S
O175        H183   0.966       .  S
O178        H536   0.966       .  S
O179        H184   0.966       .  S
H182        O532   0.966   1_554  S
H195        O505   0.990   1_554  S
O197       Zr209   2.443       .  S
O197        C199   1.286       .  A
O198       Zr235   2.423       .  S
O198        C199   1.285       .  A
C199        C343   1.434       .  S
O200       Zr566   2.446   1_544  S
O200        C556   1.287       .  A
O201       Zr236   2.416       .  S
O201        C202   1.283       .  A
C202        C645   1.433       .  S
C202        O554   1.287       .  A
O203       Zr566   2.440   1_554  S
O203        C559   1.286       .  A
O204       Zr235   2.424       .  S
O204        C205   1.285       .  A
C205        C705   1.434       .  S
C205        O557   1.286       .  A
O206       Zr209   2.443   1_545  S
O206        C208   1.287       .  A
O207       Zr236   2.413       .  S
O207        C208   1.283       .  A
C208        C299   1.431       .  S
Zr209       O210   2.435       .  S
Zr209       O211   2.436       .  S
Zr209       O215   2.373       .  S
Zr209       O216   2.372   1_565  S
Zr209       O239   2.371   1_565  S
Zr209       O241   2.374       .  S
O210        H253   0.990       .  S
O211        H252   0.990       .  S
O211        H256   0.990       .  S
Zr212       O554   2.445   1_565  S
Zr212       O557   2.440       .  S
Zr212       O213   2.436       .  S
Zr212       O568   2.434       .  S
Zr212       O216   2.371   1_565  S
Zr212       O215   2.374       .  S
Zr212       O240   2.373       .  S
Zr212       O242   2.373   1_565  S
O213        H254   0.990   1_565  S
O213        H611   0.990       .  S
O214       Zr566   2.434   1_554  S
O214        H247   0.990   1_565  S
O215       Zr235   2.378       .  S
O216       Zr236   2.379       .  S
O216        H243   0.966       .  S
O217       Zr229   2.451   1_545  S
O217        C219   1.288       .  A
O218       Zr236   2.411       .  S
O218        C219   1.282       .  A
C219        C274   1.433       .  S
O220       Zr586   2.443   1_554  S
O220        C576   1.287       .  A
O221       Zr235   2.420       .  S
O221        C222   1.284       .  A
C222        C681   1.434       .  S
C222        O574   1.287       .  A
O223       Zr586   2.448   1_544  S
O223        C579   1.287       .  A
O224       Zr236   2.415       .  S
O224        C225   1.283       .  A
C225        C617   1.433       .  S
C225        O577   1.287       .  A
O226       Zr229   2.444       .  S
O226        C228   1.287       .  A
O227       Zr235   2.420       .  S
O227        C228   1.284       .  A
C228        C338   1.434       .  S
Zr229       O230   2.436       .  S
Zr229       O231   2.435       .  S
Zr229       O237   2.373   1_565  S
Zr229       O238   2.374       .  S
Zr229       O241   2.376       .  S
Zr229       O239   2.371   1_565  S
O230        H250   0.990   1_565  S
O230        H255   0.990       .  S
O231        H251   0.990       .  S
Zr232       O574   2.443       .  S
Zr232       O577   2.448   1_565  S
Zr232       O233   2.434       .  S
Zr232       O588   2.435       .  S
Zr232       O238   2.374       .  S
Zr232       O237   2.372   1_565  S
Zr232       O242   2.372   1_565  S
Zr232       O240   2.374       .  S
O233        H249   0.990       .  S
O234       Zr586   2.435   1_554  S
O234        H248   0.990   1_565  S
O234        H258   0.990       .  S
Zr235       O238   2.381       .  S
Zr235       O240   2.383       .  S
Zr235       O241   2.385       .  S
Zr236       O237   2.381       .  S
Zr236       O239   2.377       .  S
Zr236       O242   2.376       .  S
O237        H245   0.966       .  S
O240        H598   0.966       .  S
O241        H246   0.966       .  S
H244        O594   0.966   1_554  S
H257        O567   0.990   1_554  S
C259        C449   1.434       .  S
C259        C260   1.205       .  T
C260        C261   1.411       .  S
C261        C262   1.205       .  T
C263        C579   1.433       .  S
C263        C264   1.205       .  T
C264        C265   1.410       .  S
C265        C266   1.204       .  T
C267        C268   1.205       .  T
C268        C269   1.410       .  S
C269        C270   1.205       .  T
C271        C272   1.204       .  T
C272        C273   1.410       .  S
C273        C274   1.204       .  T
C275        C276   1.204       .  T
C276        C277   1.409       .  S
C277        C278   1.204       .  T
C279        C280   1.203       .  T
C280        C281   1.407       .  S
C281        C282   1.203       .  T
C283        C284   1.203       .  T
C284        C285   1.408       .  S
C285        C286   1.203       .  T
C286        C438   1.431       .  S
C287        C288   1.205       .  T
C288        C289   1.411       .  S
C289        C290   1.205       .  T
C290        C494   1.434       .  S
C291        C556   1.433       .  S
C291        C292   1.205       .  T
C292        C293   1.410       .  S
C293        C294   1.205       .  T
C295        C517   1.432       .  S
C295        C296   1.204       .  T
C296        C297   1.409       .  S
C297        C298   1.204       .  T
C299        C300   1.204       .  T
C300        C301   1.409       .  S
C301        C302   1.204       .  T
C303        C304   1.205       .  T
C304        C305   1.411       .  S
C305        C306   1.205       .  T
C307        C308   1.205       .  T
C308        C309   1.411       .  S
C309        C310   1.205       .  T
C311        C312   1.205       .  T
C312        C313   1.411       .  S
C313        C314   1.205       .  T
C315        C458   1.435       .  S
C315        C316   1.206       .  T
C316        C317   1.412       .  S
C317        C318   1.205       .  T
C319        C320   1.205       .  T
C320        C321   1.411       .  S
C321        C322   1.205       .  T
C322        C514   1.434       .  S
C323        C497   1.434       .  S
C323        C324   1.205       .  T
C324        C325   1.411       .  S
C325        C326   1.205       .  T
C327        C576   1.433       .  S
C327        C328   1.205       .  T
C328        C329   1.410       .  S
C329        C330   1.205       .  T
C331        C332   1.205       .  T
C332        C333   1.411       .  S
C333        C334   1.205       .  T
C335        C336   1.205       .  T
C336        C337   1.411       .  S
C337        C338   1.205       .  T
C339        C340   1.204       .  T
C340        C341   1.410       .  S
C341        C342   1.204       .  T
C343        C344   1.205       .  T
C344        C345   1.410       .  S
C345        C346   1.204       .  T
C347        C348   1.204       .  T
C348        C349   1.409       .  S
C349        C350   1.204       .  T
C350        C429   1.432       .  S
C351        C559   1.434       .  S
C351        C352   1.205       .  T
C352        C353   1.411       .  S
C353        C354   1.205       .  T
C355        N356   1.356       .  A
C355        N360   1.356       .  A
C355        C701   1.433       .  S
N356        C357   1.358       .  A
C357        N358   1.359       .  A
C357        C363   1.468       .  S
N358        C359   1.357       .  A
C359        N360   1.356       .  A
C359        C708   1.434       .  S
C361        N362   1.357       .  A
C361        N366   1.356       .  A
C361        C693   1.434       .  S
N362        C363   1.359       .  A
C363        N364   1.358       .  A
N364        C365   1.356       .  A
C365        N366   1.356       .  A
C365        C700   1.433       .  S
C367        N368   1.357       .  A
C367        N372   1.356       .  A
C367        C689   1.434       .  S
N368        C369   1.359       .  A
C369        N370   1.359       .  A
C369        C377   1.469       .  S
N370        C371   1.357       .  A
C371        N372   1.356       .  A
C371        C685   1.434       .  S
C373        N374   1.356       .  A
C373        N378   1.356       .  A
C373        C684   1.434       .  S
N374        C375   1.357       .  A
C375        N376   1.357       .  A
C375        C680   1.435       .  S
N376        C377   1.359       .  A
C377        N378   1.359       .  A
C379        N380   1.357       .  A
C379        N384   1.357       .  A
C379        C673   1.435       .  S
N380        C381   1.359       .  A
C381        N382   1.359       .  A
C381        C387   1.469       .  S
N382        C383   1.357       .  A
C383        N384   1.357       .  A
C383        C672   1.435       .  S
C385        N386   1.357       .  A
C385        N390   1.357       .  A
C385        C665   1.435       .  S
N386        C387   1.359       .  A
C387        N388   1.359       .  A
N388        C389   1.357       .  A
C389        N390   1.357       .  A
C389        C661   1.435       .  S
C391        N392   1.357       .  A
C391        N396   1.356       .  A
C391        C657   1.434       .  S
N392        C393   1.357       .  A
C393        N394   1.355       .  A
C393        C656   1.433       .  S
N394        C395   1.357       .  A
C395        N396   1.358       .  A
C395        C401   1.466       .  S
C397        N398   1.357       .  A
C397        N402   1.356       .  A
C397        C652   1.433       .  S
N398        C399   1.357       .  A
C399        N400   1.356       .  A
C399        C648   1.434       .  S
N400        C401   1.358       .  A
C401        N402   1.357       .  A
C403        N404   1.357       .  A
C403        N408   1.355       .  A
C403        C637   1.432       .  S
N404        C405   1.357       .  A
C405        N406   1.356       .  A
C405        C641   1.435       .  S
N406        C407   1.358       .  A
C407        N408   1.357       .  A
C407        C413   1.466       .  S
C409        N410   1.357       .  A
C409        N414   1.356       .  A
C409        C632   1.433       .  S
N410        C411   1.357       .  A
C411        N412   1.355       .  A
C411        C633   1.431       .  S
N412        C413   1.357       .  A
C413        N414   1.358       .  A
C415        N416   1.357       .  A
C415        N420   1.356       .  A
C415        C625   1.434       .  S
N416        C417   1.357       .  A
C417        N418   1.356       .  A
C417        C621   1.434       .  S
N418        C419   1.357       .  A
C419        N420   1.358       .  A
C419        C423   1.466       .  S
C421        N422   1.356       .  A
C421        N426   1.357       .  A
C421        C620   1.434       .  S
N422        C423   1.357       .  A
C423        N424   1.358       .  A
N424        C425   1.356       .  A
C425        N426   1.357       .  A
C425        C616   1.434       .  S
O428       Zr465   2.419       .  S
O428        C429   1.284   1_556  A
O430       Zr442   2.450       .  S
O430        C432   1.288       .  A
O431       Zr466   2.412       .  S
O431        C432   1.282       .  A
C432        C629   1.433       .  S
O433       Zr442   2.442       .  S
O433        C435   1.286       .  A
O434       Zr465   2.421       .  S
O434        C435   1.284       .  A
C435        C696   1.433       .  S
O437       Zr466   2.410       .  S
O437        C438   1.282   1_556  A
Zr439       O440   2.434       .  S
Zr439       O445   2.373       .  S
Zr439       O446   2.372       .  S
Zr439       O469   2.372       .  S
Zr439       O471   2.375       .  S
O440        H483   0.990       .  S
O441        H482   0.990       .  S
O441        H486   0.990       .  S
Zr442       O443   2.436       .  S
Zr442       O444   2.434       .  S
Zr442       O446   2.372       .  S
Zr442       O445   2.374       .  S
Zr442       O470   2.375       .  S
Zr442       O472   2.372       .  S
O443        H484   0.990       .  S
O443        H487   0.990       .  S
O444        H477   0.990       .  S
O445       Zr465   2.382       .  S
O446       Zr466   2.383       .  S
O446        H473   0.966       .  S
O448       Zr466   2.415       .  S
O448        C449   1.283   1_556  A
O450       Zr462   2.443       .  S
O450        C452   1.287       .  A
O451       Zr465   2.422       .  S
O451        C452   1.285       .  A
C452        C664   1.434       .  S
O453       Zr462   2.447       .  S
O453        C455   1.287       .  A
O454       Zr466   2.415       .  S
O454        C455   1.283       .  A
C455        C624   1.433       .  S
O457       Zr465   2.424       .  S
O457        C458   1.285   1_556  A
Zr459       O460   2.435       .  S
Zr459       O467   2.372       .  S
Zr459       O468   2.373       .  S
Zr459       O471   2.374       .  S
Zr459       O469   2.373       .  S
O460        H480   0.990       .  S
O461        H481   0.990       .  S
Zr462       O463   2.434       .  S
Zr462       O464   2.434       .  S
Zr462       O468   2.372       .  S
Zr462       O467   2.370       .  S
Zr462       O472   2.373       .  S
Zr462       O470   2.374       .  S
O463        H479   0.990       .  S
O464        H478   0.990       .  S
O464        H488   0.990       .  S
Zr465       O468   2.378       .  S
Zr465       O470   2.385       .  S
Zr465       O471   2.384       .  S
Zr466       O467   2.379       .  S
Zr466       O469   2.378       .  S
Zr466       O472   2.377       .  S
O467        H475   0.966       .  S
O470        H474   0.966       .  S
O489       Zr501   2.441   1_455  S
O489        C491   1.286       .  A
O490       Zr527   2.423       .  S
O490        C491   1.285       .  A
C491        C688   1.434       .  S
O493       Zr528   2.414       .  S
O493        C494   1.283   1_556  A
O496       Zr527   2.423       .  S
O496        C497   1.285   1_556  A
O498       Zr501   2.443       .  S
O498        C500   1.287       .  A
O499       Zr528   2.413       .  S
O499        C500   1.283       .  A
C500        C636   1.431       .  S
Zr501       O502   2.434       .  S
Zr501       O503   2.436       .  S
Zr501       O507   2.373   1_655  S
Zr501       O508   2.372       .  S
Zr501       O531   2.372       .  S
Zr501       O533   2.373   1_655  S
O502        H545   0.990       .  S
O503        H544   0.990   1_655  S
O503        H548   0.990       .  S
Zr504       O505   2.434       .  S
Zr504       O508   2.372       .  S
Zr504       O507   2.374   1_655  S
Zr504       O532   2.374   1_655  S
Zr504       O534   2.372       .  S
O505        H546   0.990       .  S
O506        H539   0.990       .  S
O507       Zr527   2.380       .  S
O508       Zr528   2.380       .  S
O508        H535   0.966       .  S
O509       Zr521   2.450       .  S
O509        C511   1.288       .  A
O510       Zr528   2.414       .  S
O510        C511   1.283       .  A
C511        C660   1.434       .  S
O513       Zr527   2.423       .  S
O513        C514   1.285   1_556  A
O516       Zr528   2.412       .  S
O516        C517   1.283   1_556  A
O518       Zr521   2.443   1_455  S
O518        C520   1.287       .  A
O519       Zr527   2.422       .  S
O519        C520   1.285       .  A
C520        C668   1.435       .  S
Zr521       O522   2.435       .  S
Zr521       O523   2.434       .  S
Zr521       O529   2.373       .  S
Zr521       O530   2.374   1_655  S
Zr521       O533   2.374   1_655  S
Zr521       O531   2.371       .  S
O522        H542   0.990       .  S
O522        H547   0.990       .  S
O523        H543   0.990       .  S
Zr524       O525   2.434       .  S
Zr524       O530   2.373   1_655  S
Zr524       O529   2.372       .  S
Zr524       O534   2.372       .  S
Zr524       O532   2.374   1_655  S
O525        H541   0.990       .  S
O526        H540   0.990       .  S
O526        H550   0.990       .  S
Zr527       O530   2.380       .  S
Zr527       O532   2.385       .  S
Zr527       O533   2.384       .  S
Zr528       O529   2.381       .  S
Zr528       O531   2.377       .  S
Zr528       O534   2.378       .  S
O529        H537   0.966       .  S
O533        H538   0.966       .  S
O551       Zr563   2.442       .  S
O551        C553   1.286       .  A
O552       Zr589   2.422       .  S
O552        C553   1.284       .  A
C553        C697   1.433       .  S
O555       Zr590   2.416       .  S
O555        C556   1.283   1_556  A
O558       Zr589   2.424       .  S
O558        C559   1.285   1_556  A
O560       Zr563   2.443   1_545  S
O560        C562   1.287       .  A
O561       Zr590   2.413       .  S
O561        C562   1.283       .  A
C562        C653   1.432       .  S
Zr563       O564   2.435       .  S
Zr563       O565   2.436       .  S
Zr563       O569   2.374       .  S
Zr563       O570   2.372   1_565  S
Zr563       O593   2.371   1_565  S
Zr563       O595   2.374       .  S
O564        H607   0.990       .  S
O565        H606   0.990       .  S
O565        H610   0.990       .  S
Zr566       O567   2.436       .  S
Zr566       O570   2.371   1_565  S
Zr566       O569   2.374       .  S
Zr566       O594   2.373       .  S
Zr566       O596   2.373   1_565  S
O567        H608   0.990   1_565  S
O568        H601   0.990   1_565  S
O569       Zr589   2.378       .  S
O570       Zr590   2.380       .  S
O570        H597   0.966       .  S
O571       Zr583   2.451   1_545  S
O571        C573   1.288       .  A
O572       Zr590   2.412       .  S
O572        C573   1.283       .  A
C573        C628   1.434       .  S
O575       Zr589   2.420       .  S
O575        C576   1.284   1_556  A
O578       Zr590   2.414       .  S
O578        C579   1.283   1_556  A
O580       Zr583   2.445       .  S
O580        C582   1.287       .  A
O581       Zr589   2.419       .  S
O581        C582   1.284       .  A
C582        C692   1.434       .  S
Zr583       O584   2.436       .  S
Zr583       O585   2.435       .  S
Zr583       O591   2.373   1_565  S
Zr583       O592   2.374       .  S
Zr583       O595   2.375       .  S
Zr583       O593   2.371   1_565  S
O584        H604   0.990   1_565  S
O584        H609   0.990       .  S
O585        H605   0.990   1_565  S
Zr586       O587   2.434       .  S
Zr586       O592   2.374       .  S
Zr586       O591   2.371   1_565  S
Zr586       O596   2.372   1_565  S
Zr586       O594   2.374       .  S
O587        H603   0.990       .  S
O588        H602   0.990   1_565  S
O588        H612   0.990       .  S
Zr589       O592   2.381       .  S
Zr589       O594   2.383       .  S
Zr589       O595   2.385       .  S
Zr590       O591   2.381       .  S
Zr590       O593   2.377       .  S
Zr590       O596   2.376       .  S
O591        H599   0.966       .  S
O595        H600   0.966       .  S
C613        C614   1.205       .  T
C614        C615   1.411       .  S
C615        C616   1.205       .  T
C617        C618   1.205       .  T
C618        C619   1.410       .  S
C619        C620   1.205       .  T
C621        C622   1.205       .  T
C622        C623   1.410       .  S
C623        C624   1.205       .  T
C625        C626   1.205       .  T
C626        C627   1.411       .  S
C627        C628   1.205       .  T
C629        C630   1.204       .  T
C630        C631   1.410       .  S
C631        C632   1.204       .  T
C633        C634   1.203       .  T
C634        C635   1.408       .  S
C635        C636   1.203       .  T
C637        C638   1.203       .  T
C638        C639   1.408       .  S
C639        C640   1.203       .  T
C641        C642   1.205       .  T
C642        C643   1.411       .  S
C643        C644   1.205       .  T
C645        C646   1.205       .  T
C646        C647   1.410       .  S
C647        C648   1.205       .  T
C649        C650   1.204       .  T
C650        C651   1.410       .  S
C651        C652   1.204       .  T
C653        C654   1.204       .  T
C654        C655   1.409       .  S
C655        C656   1.204       .  T
C657        C658   1.205       .  T
C658        C659   1.411       .  S
C659        C660   1.205       .  T
C661        C662   1.205       .  T
C662        C663   1.411       .  S
C663        C664   1.205       .  T
C665        C666   1.205       .  T
C666        C667   1.412       .  S
C667        C668   1.205       .  T
C669        C670   1.206       .  T
C670        C671   1.412       .  S
C671        C672   1.206       .  T
C673        C674   1.205       .  T
C674        C675   1.412       .  S
C675        C676   1.205       .  T
C677        C678   1.205       .  T
C678        C679   1.411       .  S
C679        C680   1.205       .  T
C681        C682   1.205       .  T
C682        C683   1.411       .  S
C683        C684   1.205       .  T
C685        C686   1.205       .  T
C686        C687   1.411       .  S
C687        C688   1.205       .  T
C689        C690   1.205       .  T
C690        C691   1.411       .  S
C691        C692   1.205       .  T
C693        C694   1.204       .  T
C694        C695   1.410       .  S
C695        C696   1.205       .  T
C697        C698   1.204       .  T
C698        C699   1.410       .  S
C699        C700   1.204       .  T
C701        C702   1.204       .  T
C702        C703   1.409       .  S
C703        C704   1.204       .  T
C705        C706   1.205       .  T
C706        C707   1.411       .  S
C707        C708   1.205       .  T
