geometry optimzed in LAMMPS
_audit_creation_date              2020-12-01 
_audit_creation_method            'lammps2cif' 
_symmetry_space_group_name_H-M    'P1' 
_symmetry_Int_Tables_number       1 
_symmetry_cell_setting            triclinic 
loop_ 
_symmetry_equiv_pos_as_xyz 
  x,y,z 
_cell_length_a                    24.82472031 
_cell_length_b                    25.915283448343295 
_cell_length_c                    26.162741082528175 
_cell_angle_alpha                 95.10011368411368 
_cell_angle_beta                  89.99041852571509 
_cell_angle_gamma                 89.99854612029665 
loop_ 
_atom_site_label 
_atom_site_type_symbol 
_atom_site_fract_x 
_atom_site_fract_y 
_atom_site_fract_z 
_atom_site_charge 
C1          C  0.19131452  0.19327789  0.20862247     0.89200
C2          C  0.22861380  0.16482133  0.24414807    -0.51100
C3          C  0.26083773  0.19753250  0.27481395     0.12100
C4          C  0.25254791  0.25516787  0.26722148     0.23000
C5          C  0.15962516  0.23259400  0.24468747    -0.51800
C6          C  0.19195057  0.26503285  0.27525041     0.12200
C7          C  0.22933412  0.22648373  0.17890132    -0.51300
C8          C  0.26116601  0.25879273  0.20962682     0.12800
H9          H  0.23027186  0.12295267  0.24412388     0.17300
H10         H  0.27872573  0.28183204  0.29187129     0.03000
H11         H  0.11599244  0.23562276  0.24475753     0.17600
H12         H  0.23053311  0.22502139  0.13727067     0.17400
C13         C  0.16013189  0.39835253  0.36644346     0.32700
C14         C  0.16090077  0.49109863  0.42257896     0.32700
C15         C  0.18729223  0.44234538  0.34053571    -0.03500
C16         C  0.10456575  0.42083741  0.38074196    -0.04300
C17         C  0.18832276  0.39864568  0.41865523    -0.04200
C18         C  0.18763167  0.49064136  0.36974281    -0.03500
C19         C  0.10488796  0.46867605  0.40980633    -0.04300
C20         C  0.18877611  0.44704423  0.44789111    -0.04200
C21         C  0.18517295  0.52793023  0.33510540    -0.29600
N22         N  0.18468663  0.50440612  0.28697368     0.16900
C23         C  0.18484817  0.45267453  0.28959762    -0.29600
H24         H  0.17807736  0.42448560  0.25710176     0.18900
C25         C  0.05213851  0.48255359  0.41920281    -0.28500
N26         N  0.02048000  0.44447609  0.39651048     0.15700
C27         C  0.05173671  0.40663393  0.37291480    -0.28500
C28         C  0.18671421  0.43671230  0.49886002    -0.28800
N29         N  0.18597434  0.38500287  0.50157079     0.16200
H30         H  0.18005068  0.46496165  0.53133200     0.18800
C31         C  0.18584678  0.36144852  0.45343772    -0.28800
H32         H  0.17839084  0.32053131  0.44415673     0.18800
H33         H  0.03704194  0.37164717  0.35177208     0.18800
H34         H  0.17868553  0.56898713  0.34449898     0.18900
H35         H  0.03778607  0.51748269  0.44069599     0.18800
C36         C  0.19455719  0.69561870  0.57949217     0.89200
C37         C  0.23262438  0.72474490  0.54529682    -0.51100
C38         C  0.26501662  0.69249928  0.51434669     0.12100
C39         C  0.25610233  0.63455041  0.52043182     0.23000
C40         C  0.16307398  0.65737429  0.54229535    -0.51800
C41         C  0.19547181  0.62522973  0.51158985     0.12200
C42         C  0.23175807  0.66140073  0.60888862    -0.51300
C43         C  0.26378278  0.62951981  0.57793658     0.12800
H44         H  0.23462360  0.76668245  0.54636233     0.17300
H45         H  0.28239398  0.60819537  0.49557089     0.03000
H46         H  0.11943391  0.65438457  0.54198613     0.17600
H47         H  0.23221696  0.66182379  0.65046467     0.17400
C48         C  0.47346637  0.14140360  0.42876007     0.32700
C49         C  0.38588244  0.15898867  0.36942374     0.32700
C50         C  0.48533740  0.16362729  0.37769833    -0.03500
C51         C  0.43868087  0.09417923  0.41245770    -0.04300
C52         C  0.43208325  0.17993539  0.45334151    -0.04200
C53         C  0.44060123  0.17261448  0.34743617    -0.03500
C54         C  0.39389550  0.10294753  0.38205876    -0.04300
C55         C  0.38668370  0.18906085  0.42265918    -0.04200
C56         C  0.45871254  0.19593284  0.30550309    -0.29600
N57         N  0.51285836  0.20103795  0.30983461     0.16900
C58         C  0.52973913  0.18164219  0.35350999    -0.29600
H59         H  0.57093738  0.18191086  0.36713334     0.18900
C60         C  0.36831709  0.05614096  0.37144773    -0.28500
N61         N  0.39647908  0.02011496  0.39483477     0.15700
C62         C  0.43936611  0.04258995  0.41979399    -0.28500
C63         C  0.34490571  0.20184426  0.45595378    -0.28800
N64         N  0.36348006  0.20213697  0.50441919     0.16200
H65         H  0.30287597  0.20535718  0.44573745     0.18800
C66         C  0.41566407  0.18784256  0.50364898    -0.28800
H67         H  0.43833419  0.17855541  0.53700124     0.18800
H68         H  0.46930815  0.02254929  0.44073327     0.18800
H69         H  0.43444137  0.20933935  0.27492532     0.18900
H70         H  0.33281823  0.04859010  0.34791442     0.18800
C71         C  0.68393835  0.25725409  0.14557307     0.89200
C72         C  0.71701224  0.29330022  0.18360633    -0.51100
C73         C  0.68579532  0.32550721  0.21551287     0.12100
C74         C  0.62488339  0.31898087  0.20627009     0.23000
C75         C  0.64534913  0.22889317  0.17923321    -0.51800
C76         C  0.61456902  0.26130538  0.21081599     0.12200
C77         C  0.64761784  0.29331560  0.11694360    -0.51300
C78         C  0.61649597  0.32549829  0.14900159     0.12800
H79         H  0.76062328  0.29197368  0.18641815     0.17300
H80         H  0.59947735  0.34498005  0.23239021     0.03000
H81         H  0.64270416  0.18695070  0.17832182     0.17600
H82         H  0.64525969  0.29211967  0.07541320     0.17400
C83         C  0.20268271  0.24792450  0.69219232     0.89200
C84         C  0.16981043  0.28135549  0.65725776    -0.51100
C85         C  0.20174267  0.30911816  0.62697593     0.12100
C86         C  0.26201630  0.30132246  0.63444218     0.23000
C87         C  0.23924002  0.21460058  0.65519474    -0.51800
C88         C  0.26995842  0.24303224  0.62526569     0.12200
C89         C  0.24127311  0.28602286  0.72276774    -0.51300
C90         C  0.27230287  0.31380094  0.69166899     0.12800
H91         H  0.12614937  0.28100836  0.65487894     0.17300
H92         H  0.28763137  0.32372796  0.60936416     0.03000
H93         H  0.23985654  0.17249927  0.65209725     0.17600
H94         H  0.24492461  0.28933989  0.76429803     0.17400
C95         C  0.71860379  0.47104762  0.44042960     0.32700
C96         C  0.71992511  0.41505596  0.34819749     0.32700
C97         C  0.69183668  0.49730860  0.39671567    -0.03500
C98         C  0.77471335  0.45749887  0.41887958    -0.04300
C99         C  0.69098748  0.41805796  0.43917520    -0.04200
C100        C  0.69245223  0.46808303  0.34868772    -0.03500
C101        C  0.77541535  0.42859104  0.37125308    -0.04300
C102        C  0.69171343  0.38883155  0.39118260    -0.04200
C103        C  0.69507934  0.50329424  0.31204716    -0.29600
N104        N  0.69497272  0.55175329  0.33558408     0.16900
C105        C  0.69419956  0.54885015  0.38680470    -0.29600
H106        H  0.70061700  0.58151170  0.41493256     0.18900
C107        C  0.82843215  0.42029727  0.35789202    -0.28500
N108        N  0.85932096  0.44338599  0.39609932     0.15700
C109        C  0.82728865  0.46622517  0.43352418    -0.28500
C110        C  0.69328182  0.33726073  0.40118215    -0.28800
N111        N  0.69233679  0.33438429  0.45242642     0.16200
H112        H  0.70031401  0.30454697  0.37325934     0.18800
C113        C  0.69216406  0.38287751  0.47589436    -0.28800
H114        H  0.69821023  0.39210477  0.51670919     0.18800
H115        H  0.84128375  0.48754945  0.46846637     0.18800
H116        H  0.70231725  0.49408266  0.27140352     0.18900
H117        H  0.84349133  0.39931548  0.32317900     0.18800
C118        C  0.67840786  0.74387173  0.19898705     0.89200
C119        C  0.63827717  0.77338282  0.23678600    -0.51100
C120        C  0.60657435  0.74075339  0.26272088     0.12100
C121        C  0.61766171  0.68339275  0.24855565     0.23000
C122        C  0.71020609  0.70789161  0.23210671    -0.51800
C123        C  0.67772832  0.67639555  0.25787016     0.12200
C124        C  0.64292324  0.70708969  0.16407368    -0.51300
C125        C  0.61140341  0.67574948  0.19044826     0.12800
H126        H  0.63502802  0.81528848  0.24201313     0.17300
H127        H  0.59176691  0.65705595  0.26930356     0.03000
H128        H  0.75388515  0.70630781  0.23362438     0.17600
H129        H  0.64355240  0.70521483  0.12239910     0.17400
C130        C  0.67463484  0.14302859  0.59055504     0.89200
C131        C  0.63410057  0.11360030  0.55293639    -0.51100
C132        C  0.60222092  0.14628754  0.52712181     0.12100
C133        C  0.61364277  0.20357948  0.54113298     0.23000
C134        C  0.70623322  0.17894649  0.55714791    -0.51800
C135        C  0.67365801  0.21043858  0.53143929     0.12200
C136        C  0.63932489  0.17995976  0.62556599    -0.51300
C137        C  0.60766071  0.21127189  0.59924418     0.12800
H138        H  0.63063231  0.07170930  0.54786942     0.17300
H139        H  0.58768835  0.22996040  0.52049976     0.03000
H140        H  0.74990116  0.18040447  0.55530844     0.17600
H141        H  0.64003958  0.18182573  0.66723449     0.17400
C142        C  0.39094602  0.73167139  0.42117442     0.32700
C143        C  0.47890729  0.74742347  0.36200158     0.32700
C144        C  0.39435476  0.69691931  0.37061435    -0.03500
C145        C  0.39653391  0.78610365  0.40329170    -0.04300
C146        C  0.44558633  0.72295287  0.44577395    -0.04200
C147        C  0.44009502  0.70514196  0.33988355    -0.03500
C148        C  0.44155341  0.79386747  0.37290814    -0.04300
C149        C  0.49064082  0.73098397  0.41556814    -0.04200
C150        C  0.42437586  0.69431841  0.28963183    -0.29600
N151        N  0.37246241  0.67932267  0.28889266     0.16900
C152        C  0.35334798  0.68170521  0.33724158    -0.29600
H153        H  0.31109405  0.67922499  0.34703556     0.18900
C154        C  0.44064665  0.84426459  0.36127996    -0.28500
N155        N  0.39656866  0.86710545  0.38373915     0.15700
C156        C  0.36925139  0.83242071  0.40972000    -0.28500
C157        C  0.53445709  0.71177681  0.43975306    -0.28800
N158        N  0.51693230  0.69303677  0.48352158     0.16200
H159        H  0.57528452  0.70866130  0.42520815     0.18800
C160        C  0.46293779  0.69916248  0.48763869    -0.28800
H161        H  0.43799401  0.68449141  0.51708489     0.18800
H162        H  0.33363038  0.84083918  0.43286964     0.18800
H163        H  0.44687039  0.70332962  0.25607130     0.18900
H164        H  0.47079167  0.86356004  0.33988023     0.18800
C165        C  0.21078192  0.64468624  0.10038993     0.89200
C166        C  0.17589533  0.61133685  0.13367741    -0.51100
C167        C  0.20597604  0.58115285  0.16314535     0.12100
C168        C  0.26667896  0.58668725  0.15658579     0.23000
C169        C  0.24822058  0.67527670  0.13874729    -0.51800
C170        C  0.27717480  0.64440535  0.16780294     0.12200
C171        C  0.24816140  0.60603343  0.06896354    -0.51300
C172        C  0.27738744  0.57581649  0.09925211     0.12800
H173        H  0.13225887  0.61347730  0.13571968     0.17300
H174        H  0.29081669  0.56229769  0.18103493     0.03000
H175        H  0.25084380  0.71730123  0.14318200     0.17600
H176        H  0.25244925  0.60412495  0.02752732     0.17400
C177        C  0.68403398  0.62631491  0.64538509     0.89200
C178        C  0.71599006  0.59034279  0.60638366    -0.51100
C179        C  0.68380275  0.55952016  0.57411320     0.12100
C180        C  0.62309975  0.56722675  0.58407427     0.23000
C181        C  0.64602235  0.65636701  0.61280205    -0.51800
C182        C  0.61433755  0.62537280  0.58081557     0.12200
C183        C  0.64714987  0.59049388  0.67355900    -0.51300
C184        C  0.61503371  0.55967026  0.64126346     0.12800
H185        H  0.75960116  0.59078846  0.60320889     0.17300
H186        H  0.59687648  0.54237088  0.55768679     0.03000
H187        H  0.64466488  0.69841763  0.61443835     0.17600
H188        H  0.64525719  0.59079903  0.71505381     0.17400
C189        C  0.49124333  0.41833739  0.10857253     0.32700
C190        C  0.40500284  0.47860830  0.09029088     0.32700
C191        C  0.49162455  0.47267022  0.13720392    -0.03500
C192        C  0.48338778  0.42983730  0.05258318    -0.04300
C193        C  0.43623804  0.39708621  0.12295104    -0.04200
C194        C  0.44680417  0.50401007  0.12766061    -0.03500
C195        C  0.43907657  0.46082315  0.04353774    -0.04300
C196        C  0.39213055  0.42799118  0.11351654    -0.04200
C197        C  0.46436579  0.55465912  0.13365660    -0.29600
N198        N  0.51670367  0.55500490  0.14745291     0.16900
C199        C  0.53417640  0.50583238  0.14855018    -0.29600
H200        H  0.57599876  0.49481432  0.15232298     0.18900
C201        C  0.43921102  0.46888230  0.99260111    -0.28500
N202        N  0.48221022  0.44369726  0.97057318     0.15700
C203        C  0.50962955  0.41945090  0.00638770    -0.28500
C204        C  0.34693402  0.40401764  0.13050837    -0.28800
N205        N  0.36275528  0.35962184  0.14983362     0.16200
H206        H  0.30588670  0.41800359  0.12960156     0.18800
C207        C  0.41700952  0.35480843  0.14561853    -0.28800
H208        H  0.44056955  0.32335059  0.15866361     0.18800
H209        H  0.54548667  0.39614381  0.99927177     0.18800
H210        H  0.44218042  0.58835130  0.12377298     0.18900
H211        H  0.41016503  0.49111334  0.97281963     0.18800
C212        C  0.48934038  0.46790895  0.68264629     0.32700
C213        C  0.40222427  0.40849830  0.69999771     0.32700
C214        C  0.48841323  0.41442197  0.65235852    -0.03500
C215        C  0.48200254  0.45459737  0.73820509    -0.04300
C216        C  0.43465700  0.49062267  0.66964244    -0.04200
C217        C  0.44310429  0.38343506  0.66140567    -0.03500
C218        C  0.43721226  0.42402792  0.74673008    -0.04300
C219        C  0.39007397  0.46017330  0.67854202    -0.04200
C220        C  0.46006289  0.33260883  0.65452029    -0.29600
N221        N  0.51242811  0.33186021  0.64080072     0.16900
C222        C  0.53049987  0.38087407  0.64046507    -0.29600
H223        H  0.57252465  0.39145713  0.63733173     0.18900
C224        C  0.43807883  0.41361898  0.79705511    -0.28500
N225        N  0.48193659  0.43705473  0.81928736     0.15700
C226        C  0.50920674  0.46244507  0.78417514    -0.28500
C227        C  0.34556710  0.48413914  0.66010028    -0.28800
N228        N  0.36230998  0.52814851  0.64059702     0.16200
H229        H  0.30453102  0.46996619  0.65937994     0.18800
C230        C  0.41645383  0.53265606  0.64598574    -0.28800
H231        H  0.44075558  0.56327043  0.63226990     0.18800
H232        H  0.54556678  0.48490911  0.79164525     0.18800
H233        H  0.43757837  0.29902653  0.66422172     0.18900
H234        H  0.40886823  0.39109571  0.81632346     0.18800
C235        C  0.06889752  0.83261431  0.00106255     0.45100
N236        N  0.00783917  0.85573535  0.94955970     0.04000
C237        C  0.00787063  0.06927709  0.80569314    -0.03800
H238        H  0.97669435  0.11160821  0.00043837     0.09500
C239        C  0.80200025  0.01827452  0.98281917    -0.04200
Co240      Co  0.04127421  0.94721827  0.89432464     0.74200
N241        N  0.99612673  0.04300252  0.95049748    -0.23400
Co242      Co  0.93645791  0.03623775  0.89215176     0.74100
C243        C  0.81982432  0.06965464  0.00405670     0.45200
N244        N  0.84738493  0.88720070  0.95251941     0.03600
N245        N  0.87591027  0.03966833  0.94668826     0.03800
N246        N  0.07918859  0.01615755  0.81068111    -0.44200
H247        H  0.12367869  0.90031114  0.98300631     0.09500
N248        N  0.03561340  0.00871266  0.95144600     0.04000
N249        N  0.87675351  0.02557941  0.83391844     0.03800
C250        C  0.82560001  0.03266254  0.76808104     0.45400
N251        N  0.88695503  0.85297958  0.95312597    -0.22800
C252        C  0.07540552  0.87589711  0.79714757    -0.03800
N253        N  0.02109794  0.81928332  0.97958207    -0.43900
N254        N  0.86840275  0.05387105  0.79453759    -0.44200
C255        C  0.05671240  0.82698301  0.77158244     0.45200
N256        N  0.03867216  0.00201484  0.83958384     0.04000
N257        N  0.88675214  0.83974901  0.84063875    -0.22900
N258        N  0.04452117  0.89251234  0.94900431    -0.23300
N259        N  0.84606130  0.87239688  0.84015820     0.03700
H260        H  0.90190124  0.76463325  0.80111317     0.09600
H261        H  0.77354074  0.96346959  0.78701372     0.09600
N262        N  0.99708500  0.03345709  0.83797403    -0.23400
N263        N  0.83963116  0.00259206  0.94772476    -0.23000
N264        N  0.00669354  0.84714576  0.83736734     0.04000
C265        C  0.05047615  0.06197581  0.01753047     0.45400
C266        C  0.87936644  0.82505575  0.99364551    -0.04300
N267        N  0.84140506  0.98748441  0.83513188    -0.23000
H268        H  0.76499953  0.99802975  0.98976782     0.07800
N269        N  0.06903460  0.01876856  0.99065969    -0.44200
H270        H  0.90444995  0.79338892  0.00374227     0.09600
C271        C  0.82626589  0.81049876  0.78320483     0.45300
C272        C  0.08502063  0.88103765  0.98033706    -0.03800
Co273      Co  0.94702515  0.84808303  0.89527595     0.73800
N274        N  0.81261849  0.88419811  0.99071662    -0.43900
C275        C  0.06216945  0.05797119  0.78748059     0.45500
N276        N  0.01423517  0.81111454  0.79858005    -0.43900
Co277      Co  0.84250404  0.93736318  0.89393954     0.73900
C278        C  0.80749334  0.98900306  0.79522485    -0.04300
C279        C  0.00238062  0.07843563  0.99096761    -0.03800
N280        N  0.04205239  0.88540200  0.83724768    -0.23400
N281        N  0.86529254  0.08047506  0.97920357    -0.44100
H282        H  0.98440264  0.10400629  0.80243989     0.09500
C283        C  0.87781083  0.79950586  0.80601119    -0.04200
Cl284      Cl  0.94183465  0.94221908  0.89397851    -0.47200
C285        C  0.83024544  0.84619255  0.01862074     0.45300
H286        H  0.10879328  0.90001847  0.78751123     0.09500
N287        N  0.80821995  0.85579768  0.80678126    -0.44000
C288        C  0.49239764  0.44044516  0.91789789    -0.10600
C289        C  0.49234580  0.43890167  0.87186924    -0.12100
C290        C  0.71721845  0.66179757  0.67925277    -0.15800
C291        C  0.74138110  0.69547660  0.70462932     0.08200
C292        C  0.76845411  0.73707338  0.73245094     0.10100
C293        C  0.79294678  0.77204972  0.75554476    -0.16700
C294        C  0.53620479  0.50029434  0.67183470    -0.10600
C295        C  0.57325124  0.52678432  0.65933399    -0.12100
C296        C  0.17989913  0.68023691  0.07052174    -0.15800
C297        C  0.15660457  0.71503107  0.05182023     0.08200
C298        C  0.12961175  0.75825171  0.03393263     0.10100
C299        C  0.10432665  0.79419279  0.01955559    -0.16700
C300        C  0.31970029  0.54017130  0.08216253    -0.10600
C301        C  0.35797286  0.51130136  0.08110031    -0.12100
C302        C  0.54898096  0.66727368  0.51697067    -0.10600
C303        C  0.57756987  0.64636733  0.54587139    -0.12100
C304        C  0.31230827  0.66328741  0.20832711    -0.10600
C305        C  0.34070504  0.67212727  0.24501380    -0.12100
C306        C  0.79775330  0.05457375  0.72574111    -0.15800
C307        C  0.77169336  0.07121758  0.69116416     0.08200
C308        C  0.73894604  0.09124111  0.65212709     0.10100
C309        C  0.71007907  0.11114535  0.62155562    -0.16700
C310        C  0.57336310  0.25106122  0.62262873    -0.10600
C311        C  0.54467313  0.28770807  0.63338224    -0.12100
C312        C  0.71351251  0.77559694  0.16790481    -0.15800
C313        C  0.74209636  0.79472555  0.13677199     0.08200
C314        C  0.77463704  0.81301842  0.09692522     0.10100
C315        C  0.80100531  0.82766436  0.06169269    -0.16700
C316        C  0.57746366  0.63573207  0.16694294    -0.10600
C317        C  0.54906012  0.59902266  0.15553892    -0.12100
C318        C  0.52658432  0.75562811  0.32927369    -0.10600
C319        C  0.56424456  0.75558049  0.29959505    -0.12100
C320        C  0.71495568  0.50163114  0.49069903    -0.10600
C321        C  0.70407024  0.52732453  0.53023117    -0.12100
C322        C  0.69173667  0.25100638  0.50121097    -0.10600
C323        C  0.69499140  0.28884566  0.47761725    -0.12100
C324        C  0.69588346  0.63549323  0.28751862    -0.10600
C325        C  0.69862388  0.59736030  0.31066756    -0.12100
C326        C  0.17020485  0.21445639  0.72295991    -0.15800
C327        C  0.14698667  0.17972927  0.74183616     0.08200
C328        C  0.12129093  0.13544324  0.75891971     0.10100
C329        C  0.09724786  0.09807527  0.77176676    -0.16700
C330        C  0.31561053  0.34853629  0.70807611    -0.10600
C331        C  0.35459982  0.37647784  0.70885116    -0.12100
C332        C  0.71622764  0.22036666  0.11201408    -0.15800
C333        C  0.73977360  0.18614514  0.08659196     0.08200
C334        C  0.76584756  0.14415988  0.05804780     0.10100
C335        C  0.78887780  0.10881651  0.03378326    -0.16700
C336        C  0.53781257  0.38551965  0.11929610    -0.10600
C337        C  0.57490521  0.35867181  0.13103402    -0.12100
C338        C  0.71758232  0.38436856  0.29792443    -0.10600
C339        C  0.70694264  0.35822962  0.25860365    -0.12100
C340        C  0.38743205  0.96681232  0.38991075    -0.10600
C341        C  0.38738822  0.92035650  0.38668921    -0.12100
C342        C  0.55912600  0.13177972  0.49078420    -0.10600
C343        C  0.52106724  0.13232981  0.46150417    -0.12100
C344        C  0.33191118  0.21039918  0.54836674    -0.10600
C345        C  0.30407227  0.22121156  0.58512465    -0.12100
C346        C  0.57644130  0.24232382  0.24588103    -0.10600
C347        C  0.54630825  0.22390502  0.27529416    -0.12100
C348        C  0.08075481  0.79875162  0.72699957    -0.15800
C349        C  0.10366102  0.77703928  0.69015441     0.08200
C350        C  0.13305801  0.75188015  0.64829796     0.10100
C351        C  0.15990302  0.72867023  0.61496737    -0.16700
C352        C  0.32903645  0.56278421  0.61718529    -0.10600
C353        C  0.29996665  0.59296228  0.59810601    -0.12100
C354        C  0.34376316  0.72207313  0.45395404    -0.10600
C355        C  0.30678773  0.71068260  0.48121919    -0.12100
C356        C  0.96413741  0.44433244  0.39684512    -0.10600
C357        C  0.91566167  0.44391738  0.39664403    -0.12100
C358        C  0.18343925  0.33752856  0.58529859    -0.10600
C359        C  0.18145083  0.35995689  0.54681679    -0.12100
C360        C  0.18553374  0.55246521  0.20370758    -0.10600
C361        C  0.18173176  0.52967201  0.24179946    -0.12100
C362        C  0.17529220  0.58142066  0.47894503    -0.10600
C363        C  0.16438068  0.54170090  0.45318562    -0.12100
C364        C  0.15702188  0.15944636  0.17327228    -0.15800
C365        C  0.13063098  0.13533803  0.14006239     0.08200
C366        C  0.10119459  0.10944222  0.09845440     0.10100
C367        C  0.07730283  0.08806466  0.06193034    -0.16700
C368        C  0.32835855  0.32456639  0.17134869    -0.10600
C369        C  0.29826764  0.29449448  0.18933358    -0.12100
C370        C  0.33888966  0.16915383  0.33661066    -0.10600
C371        C  0.30211280  0.18008949  0.30889776    -0.12100
C372        C  0.17206532  0.30857123  0.30849740    -0.10600
C373        C  0.16236002  0.34795262  0.33531418    -0.12100
loop_ 
_geom_bond_atom_site_label_1 
_geom_bond_atom_site_label_2 
_geom_bond_distance 
_geom_bond_site_symmetry_2 
_ccdc_geom_bond_type 
C1            C2   1.545       .  S
C1            C7   1.535       .  S
C1            C5   1.541       .  S
C1          C364   1.485       .  S
C2            H9   1.086       .  S
C2            C3   1.372       .  D
C3            C4   1.538       .  S
C3          C371   1.456       .  S
C4            C8   1.533       .  S
C4            C6   1.537       .  S
C4           H10   1.112       .  S
C5           H11   1.086       .  S
C5            C6   1.368       .  D
C6          C372   1.449       .  S
C7           H12   1.087       .  S
C7            C8   1.361       .  D
C8          C369   1.440       .  S
C13         C373   1.478       .  S
C13          C15   1.533       .  S
C13          C17   1.534       .  S
C13          C16   1.531       .  S
C14         C363   1.477       .  S
C14          C18   1.532       .  S
C14          C20   1.535       .  S
C14          C19   1.532       .  S
C15          C23   1.384       .  A
C15          C18   1.407       .  A
C16          C27   1.373       .  A
C16          C19   1.396       .  A
C17          C31   1.385       .  A
C17          C20   1.410       .  A
C18          C21   1.384       .  A
C19          C25   1.374       .  A
C20          C28   1.384       .  A
C21          N22   1.349       .  A
C21          H34   1.083       .  S
N22          C23   1.348       .  A
N22         C361   1.403       .  S
C23          H24   1.084       .  S
C25          N26   1.356       .  A
C25          H35   1.083       .  S
N26          C27   1.355       .  A
N26         C356   1.399   1_455  S
C27          H33   1.083       .  S
C28          N29   1.348       .  A
C28          H30   1.084       .  S
N29          C31   1.350       .  A
N29         C359   1.404       .  S
C31          H32   1.083       .  S
C36          C37   1.544       .  S
C36          C42   1.534       .  S
C36          C40   1.539       .  S
C36         C351   1.481       .  S
C37          H44   1.086       .  S
C37          C38   1.371       .  D
C38          C39   1.540       .  S
C38         C355   1.456       .  S
C39          C43   1.534       .  S
C39          C41   1.539       .  S
C39          H45   1.112       .  S
C40          H46   1.086       .  S
C40          C41   1.366       .  D
C41         C362   1.448       .  S
C42          H47   1.087       .  S
C42          C43   1.361       .  D
C43         C353   1.439       .  S
C48         C343   1.491       .  S
C48          C50   1.530       .  S
C48          C52   1.534       .  S
C48          C51   1.527       .  S
C49         C370   1.486       .  S
C49          C53   1.529       .  S
C49          C55   1.534       .  S
C49          C54   1.531       .  S
C50          C58   1.373       .  A
C50          C53   1.396       .  A
C51          C62   1.368       .  A
C51          C54   1.397       .  A
C52          C66   1.376       .  A
C52          C55   1.416       .  A
C53          C56   1.374       .  A
C54          C60   1.375       .  A
C55          C63   1.376       .  A
C56          N57   1.354       .  A
C56          H69   1.083       .  S
N57          C58   1.355       .  A
N57         C347   1.397       .  S
C58          H59   1.083       .  S
C60          N61   1.355       .  A
C60          H70   1.083       .  S
N61          C62   1.353       .  A
N61         C340   1.394   1_545  S
C62          H68   1.083       .  S
C63          N64   1.349       .  A
C63          H65   1.083       .  S
N64          C66   1.347       .  A
N64         C344   1.392       .  S
C66          H67   1.083       .  S
C71          C72   1.540       .  S
C71          C77   1.540       .  S
C71          C75   1.532       .  S
C71         C332   1.476       .  S
C72          H79   1.086       .  S
C72          C73   1.367       .  D
C73          C74   1.538       .  S
C73         C339   1.448       .  S
C74          C78   1.537       .  S
C74          C76   1.531       .  S
C74          H80   1.112       .  S
C75          H81   1.087       .  S
C75          C76   1.360       .  D
C76         C346   1.435       .  S
C77          H82   1.086       .  S
C77          C78   1.368       .  D
C78         C337   1.448       .  S
C83          C84   1.547       .  S
C83          C89   1.547       .  S
C83          C87   1.535       .  S
C83         C326   1.475       .  S
C84          H91   1.086       .  S
C84          C85   1.369       .  D
C85          C86   1.525       .  S
C85         C358   1.442       .  S
C86          C90   1.525       .  S
C86          C88   1.521       .  S
C86          H92   1.113       .  S
C87          H93   1.087       .  S
C87          C88   1.356       .  D
C88         C345   1.426       .  S
C89          H94   1.086       .  S
C89          C90   1.370       .  D
C90         C330   1.443       .  S
C95         C320   1.477       .  S
C95          C97   1.533       .  S
C95          C99   1.533       .  S
C95          C98   1.532       .  S
C96         C338   1.476       .  S
C96         C100   1.533       .  S
C96         C102   1.534       .  S
C96         C101   1.532       .  S
C97         C105   1.384       .  A
C97         C100   1.408       .  A
C98         C109   1.373       .  A
C98         C101   1.396       .  A
C99         C113   1.382       .  A
C99         C102   1.408       .  A
C100        C103   1.383       .  A
C101        C107   1.374       .  A
C102        C110   1.385       .  A
C103        N104   1.349       .  A
C103        H116   1.084       .  S
N104        C105   1.349       .  A
N104        C325   1.403       .  S
C105        H106   1.083       .  S
C107        N108   1.356       .  A
C107        H117   1.083       .  S
N108        C109   1.356       .  A
N108        C357   1.399       .  S
C109        H115   1.083       .  S
C110        N111   1.350       .  A
C110        H112   1.083       .  S
N111        C113   1.349       .  A
N111        C323   1.403       .  S
C113        H114   1.084       .  S
C118        C119   1.556       .  S
C118        C124   1.538       .  S
C118        C122   1.545       .  S
C118        C312   1.488       .  S
C119        H126   1.085       .  S
C119        C120   1.377       .  D
C120        C121   1.525       .  S
C120        C319   1.455       .  S
C121        C125   1.524       .  S
C121        C123   1.524       .  S
C121        H127   1.113       .  S
C122        H128   1.086       .  S
C122        C123   1.367       .  D
C123        C324   1.440       .  S
C124        H129   1.087       .  S
C124        C125   1.359       .  D
C125        C316   1.432       .  S
C130        C131   1.559       .  S
C130        C136   1.539       .  S
C130        C134   1.546       .  S
C130        C309   1.495       .  S
C131        H138   1.085       .  S
C131        C132   1.379       .  D
C132        C133   1.524       .  S
C132        C342   1.458       .  S
C133        C137   1.523       .  S
C133        C135   1.524       .  S
C133        H139   1.113       .  S
C134        H140   1.086       .  S
C134        C135   1.368       .  D
C135        C322   1.442       .  S
C136        H141   1.087       .  S
C136        C137   1.360       .  D
C137        C310   1.432       .  S
C142        C354   1.486       .  S
C142        C144   1.535       .  S
C142        C146   1.527       .  S
C142        C145   1.531       .  S
C143        C318   1.487       .  S
C143        C147   1.533       .  S
C143        C149   1.529       .  S
C143        C148   1.526       .  S
C144        C152   1.376       .  A
C144        C147   1.418       .  A
C145        C156   1.375       .  A
C145        C148   1.396       .  A
C146        C160   1.373       .  A
C146        C149   1.396       .  A
C147        C150   1.376       .  A
C148        C154   1.367       .  A
C149        C157   1.374       .  A
C150        N151   1.346       .  A
C150        H163   1.083       .  S
N151        C152   1.347       .  A
N151        C305   1.392       .  S
C152        H153   1.083       .  S
C154        N155   1.353       .  A
C154        H164   1.083       .  S
N155        C156   1.356       .  A
N155        C341   1.394       .  S
C156        H162   1.083       .  S
C157        N158   1.355       .  A
C157        H159   1.083       .  S
N158        C160   1.353       .  A
N158        C302   1.396       .  S
C160        H161   1.083       .  S
C165        C166   1.546       .  S
C165        C171   1.547       .  S
C165        C169   1.536       .  S
C165        C296   1.475       .  S
C166        H173   1.086       .  S
C166        C167   1.368       .  D
C167        C168   1.525       .  S
C167        C360   1.441       .  S
C168        C172   1.525       .  S
C168        C170   1.521       .  S
C168        H174   1.113       .  S
C169        H175   1.087       .  S
C169        C170   1.358       .  D
C170        C304   1.426       .  S
C171        H176   1.086       .  S
C171        C172   1.370       .  D
C172        C300   1.443       .  S
C177        C178   1.540       .  S
C177        C183   1.538       .  S
C177        C181   1.530       .  S
C177        C290   1.471       .  S
C178        H185   1.086       .  S
C178        C179   1.367       .  D
C179        C180   1.539       .  S
C179        C321   1.448       .  S
C180        C184   1.539       .  S
C180        C182   1.532       .  S
C180        H186   1.112       .  S
C181        H187   1.087       .  S
C181        C182   1.358       .  D
C182        C303   1.433       .  S
C183        H188   1.086       .  S
C183        C184   1.367       .  D
C184        C295   1.448       .  S
C189        C336   1.477       .  S
C189        C191   1.535       .  S
C189        C193   1.532       .  S
C189        C192   1.533       .  S
C190        C301   1.475       .  S
C190        C194   1.534       .  S
C190        C196   1.528       .  S
C190        C195   1.524       .  S
C191        C199   1.377       .  A
C191        C194   1.413       .  A
C192        C203   1.378       .  A
C192        C195   1.395       .  A
C193        C207   1.377       .  A
C193        C196   1.392       .  A
C194        C197   1.379       .  A
C195        C201   1.367   1_554  A
C196        C204   1.375       .  A
C197        N198   1.348       .  A
C197        H210   1.083       .  S
N198        C199   1.349       .  A
N198        C317   1.396       .  S
C199        H200   1.084       .  S
C201        N202   1.353       .  A
C201        H211   1.083       .  S
N202        C203   1.357   1_556  A
N202        C288   1.396       .  S
C203        H209   1.082   1_554  S
C204        N205   1.355       .  A
C204        H206   1.082       .  S
N205        C207   1.356       .  A
N205        C368   1.401       .  S
C207        H208   1.083       .  S
C212        C294   1.476       .  S
C212        C214   1.534       .  S
C212        C216   1.530       .  S
C212        C215   1.534       .  S
C213        C331   1.474       .  S
C213        C217   1.534       .  S
C213        C219   1.527       .  S
C213        C218   1.525       .  S
C214        C222   1.377       .  A
C214        C217   1.414       .  A
C215        C226   1.379       .  A
C215        C218   1.395       .  A
C216        C230   1.376       .  A
C216        C219   1.391       .  A
C217        C220   1.379       .  A
C218        C224   1.367       .  A
C219        C227   1.376       .  A
C220        N221   1.348       .  A
C220        H233   1.083       .  S
N221        C222   1.348       .  A
N221        C311   1.396       .  S
C222        H223   1.084       .  S
C224        N225   1.353       .  A
C224        H234   1.083       .  S
N225        C226   1.357       .  A
N225        C289   1.396       .  S
C226        H232   1.082       .  S
C227        N228   1.355       .  A
C227        H229   1.083       .  S
N228        C230   1.355       .  A
N228        C352   1.400       .  S
C230        H231   1.083       .  S
C235        N253   1.345   1_554  A
C235        C272   1.466   1_554  S
C235        C299   1.444       .  S
N236        N253   1.323       .  A
N236        N258   1.319       .  A
N236       Co273   2.070   1_455  S
C237        N262   1.336   1_455  A
C237        H282   1.082   1_455  S
C237        C275   1.451       .  S
H238        C279   1.081   1_654  S
C239        N263   1.347       .  A
C239        H268   1.081   1_545  S
C239        C243   1.465   1_556  S
Co240       N258   2.103       .  S
Co240       N248   2.090   1_565  S
Co240       N280   2.091       .  S
Co240       N256   2.106   1_565  S
Co240      Cl284   2.472   1_455  S
N241        C279   1.347   1_655  A
N241        N248   1.325   1_655  A
N241       Co242   2.123       .  S
Co242       N245   2.069       .  S
Co242       N262   2.064       .  S
Co242       N249   2.126       .  S
Co242      Cl284   2.445   1_545  S
C243        N281   1.344   1_554  A
C243        C335   1.444       .  S
N244        N251   1.324       .  A
N244        N274   1.328       .  A
N244       Co277   2.099       .  S
N245        N263   1.319       .  A
N245        N281   1.323       .  A
N246        C275   1.356       .  A
N246        N256   1.329       .  A
H247        C272   1.081       .  S
N248        N269   1.327       .  A
N249        N267   1.323   1_545  A
N249        N254   1.333       .  A
C250        N254   1.358       .  A
C250        C278   1.459   1_545  S
C250        C306   1.463       .  S
N251        C266   1.349       .  A
N251       Co273   2.120       .  S
C252        N280   1.342       .  A
C252        H286   1.081       .  S
C252        C255   1.456       .  S
C255        N276   1.353       .  A
C255        C348   1.449       .  S
N256        N262   1.318   1_455  A
N257        C283   1.338       .  A
N257        N259   1.318       .  A
N257       Co273   2.068       .  S
N258        C272   1.347       .  A
N259        N287   1.328       .  A
N259       Co277   2.098       .  S
H260        C283   1.082       .  S
H261        C278   1.081       .  S
N263       Co277   2.102   1_545  S
N264        N276   1.330       .  A
N264        N280   1.324       .  A
N264       Co273   2.117   1_455  S
C265        N269   1.349   1_554  A
C265        C279   1.464   1_554  S
C265        C367   1.453       .  S
C266        H270   1.081   1_556  S
C266        C285   1.466   1_556  S
N267        C278   1.345       .  A
N267       Co277   2.100       .  S
C271        N287   1.353       .  A
C271        C283   1.451       .  S
C271        C293   1.440       .  S
Co273      Cl284   2.446       .  S
N274        C285   1.350   1_556  A
C275        C329   1.443       .  S
Co277      Cl284   2.469       .  S
C285        C315   1.457       .  S
C288        C289   1.201       .  T
C290        C291   1.208       .  T
C291        C292   1.416       .  S
C292        C293   1.208       .  T
C294        C295   1.210       .  T
C296        C297   1.211       .  T
C297        C298   1.420       .  S
C298        C299   1.211       .  T
C300        C301   1.208       .  T
C302        C303   1.201       .  T
C304        C305   1.197       .  T
C306        C307   1.222       .  T
C307        C308   1.438       .  S
C308        C309   1.222       .  T
C310        C311   1.200       .  T
C312        C313   1.218       .  T
C313        C314   1.432       .  S
C314        C315   1.218       .  T
C316        C317   1.200       .  T
C318        C319   1.215       .  T
C320        C321   1.210       .  T
C322        C323   1.207       .  T
C324        C325   1.206       .  T
C326        C327   1.210       .  T
C327        C328   1.420       .  S
C328        C329   1.210       .  T
C330        C331   1.208       .  T
C332        C333   1.211       .  T
C333        C334   1.420       .  S
C334        C335   1.210       .  T
C336        C337   1.210       .  T
C338        C339   1.210       .  T
C340        C341   1.199       .  T
C342        C343   1.217       .  T
C344        C345   1.197       .  T
C346        C347   1.202       .  T
C348        C349   1.213       .  T
C349        C350   1.425       .  S
C350        C351   1.214       .  T
C352        C353   1.205       .  T
C354        C355   1.215       .  T
C356        C357   1.203       .  T
C358        C359   1.207       .  T
C360        C361   1.207       .  T
C362        C363   1.210       .  T
C364        C365   1.216       .  T
C365        C366   1.428       .  S
C366        C367   1.216       .  T
C368        C369   1.205       .  T
C370        C371   1.215       .  T
C372        C373   1.210       .  T
