geometry optimzed in LAMMPS
_audit_creation_date              2020-12-01 
_audit_creation_method            'lammps2cif' 
_symmetry_space_group_name_H-M    'P1' 
_symmetry_Int_Tables_number       1 
_symmetry_cell_setting            triclinic 
loop_ 
_symmetry_equiv_pos_as_xyz 
  x,y,z 
_cell_length_a                    64.06579052 
_cell_length_b                    65.10580978995499 
_cell_length_c                    65.10368912112209 
_cell_angle_alpha                 90.19176179932005 
_cell_angle_beta                  89.98588771373156 
_cell_angle_gamma                 90.00549991280822 
loop_ 
_atom_site_label 
_atom_site_type_symbol 
_atom_site_fract_x 
_atom_site_fract_y 
_atom_site_fract_z 
_atom_site_charge 
C1          C  0.37109088  0.62061071  0.61442707    -0.01600
N2          N  0.48793763  0.44795404  0.50317452    -0.05200
N3          N  0.48417251  0.43483909  0.51813518    -0.57300
N4          N  0.47326168  0.46109199  0.45622609    -0.04900
N5          N  0.45834089  0.45703800  0.44288772    -0.59400
N6          N  0.48764603  0.44665384  0.45574731    -0.04500
N7          N  0.48271159  0.43247789  0.44194525    -0.57300
N8          N  0.47390101  0.46272393  0.50334344    -0.04100
N9          N  0.46033558  0.45989958  0.51838732    -0.59800
C10         C  0.46700927  0.44249205  0.52761844     0.97000
C11         C  0.46450618  0.43934840  0.43386987     0.96800
N12         N  0.48905460  0.52296744  0.45382345    -0.05400
N13         N  0.48479196  0.53698201  0.43992158    -0.57900
N14         N  0.47437115  0.51164900  0.50148798    -0.03500
N15         N  0.46005271  0.51716861  0.51501014    -0.59100
N16         N  0.48907059  0.52569526  0.50049012    -0.05400
N17         N  0.48507675  0.54102056  0.51324178    -0.58100
N18         N  0.47405715  0.50920232  0.45456021    -0.03100
N19         N  0.45930183  0.51356654  0.44109356    -0.59200
Mn20       Mn  0.47337337  0.48607947  0.47902121     1.18400
C21         C  0.46630798  0.53086982  0.43194245     0.99100
C22         C  0.46696452  0.53548275  0.52231412     0.99700
N23         N  0.53784027  0.44567243  0.45571262    -0.05400
N24         N  0.54203007  0.43170488  0.44148293    -0.61700
N25         N  0.55179362  0.46098672  0.50320644    -0.04200
N26         N  0.56583463  0.45711428  0.51754977    -0.62400
N27         N  0.53727118  0.44669832  0.50304513    -0.04900
N28         N  0.54122668  0.43276210  0.51720521    -0.62000
N29         N  0.55268544  0.45964173  0.45611380    -0.03800
N30         N  0.56718160  0.45549529  0.44229535    -0.62700
Mn31       Mn  0.51261184  0.44607386  0.47928878     1.10700
C32         C  0.56038870  0.43805371  0.43319494     1.00300
C33         C  0.55894440  0.43955450  0.52631300     1.00400
N34         N  0.53762621  0.52365276  0.50118515    -0.04900
N35         N  0.54039654  0.53704981  0.51617204    -0.60300
N36         N  0.55286795  0.50760444  0.45453505    -0.04200
N37         N  0.56677539  0.51048955  0.43982615    -0.57000
N38         N  0.53831528  0.52180206  0.45379736    -0.05600
N39         N  0.54201570  0.53460590  0.43859905    -0.59900
N40         N  0.55203083  0.50929217  0.50180739    -0.04500
N41         N  0.56509757  0.51275089  0.51707821    -0.57100
Mn42       Mn  0.51367142  0.52404875  0.47721029     1.20200
Mn43       Mn  0.55294681  0.48444911  0.47898561     1.10100
Cl44       Cl  0.51312262  0.48511929  0.47860807    -0.85000
C45         C  0.55747673  0.52995332  0.52603159     0.97300
C46         C  0.55973003  0.52734713  0.42987114     0.97100
C47         C  0.64569877  0.35684386  0.62822002    -0.01600
C48         C  0.37228584  0.35139665  0.34109079    -0.01600
C49         C  0.64963463  0.62318352  0.34484541    -0.01600
C50         C  0.38348056  0.62724855  0.34079423    -0.01600
C51         C  0.64954375  0.34199246  0.34644562    -0.01600
C52         C  0.37646786  0.35402159  0.62025725    -0.01600
C53         C  0.64208917  0.62321928  0.61924184    -0.01600
N54         N  0.28044204  0.21251606  0.98268923    -0.35700
N55         N  0.25982628  0.23688202  0.95089472    -0.56200
N56         N  0.23853296  0.25986024  0.98300710    -0.35700
N57         N  0.26143553  0.23774702  0.01459351    -0.56200
C58         C  0.29080129  0.20634467  0.96563267     0.27900
C59         C  0.29229821  0.20741009  0.99909887     0.27900
C60         C  0.23520197  0.27170172  0.96626090     0.27900
C61         C  0.23544934  0.27184707  0.99975247     0.27900
C62         C  0.26636633  0.22057335  0.93976268     0.36500
C63         C  0.24452090  0.24594250  0.93988178     0.36500
C64         C  0.27062336  0.22347258  0.02655060     0.36500
C65         C  0.24778703  0.24794159  0.02669276     0.36500
C66         C  0.30940009  0.19703762  0.97126267    -0.21000
C67         C  0.31032610  0.19767296  0.99238565    -0.21000
C68         C  0.23019457  0.29150292  0.97251705    -0.21000
C69         C  0.23006324  0.29150708  0.99364877    -0.21000
C70         C  0.25526529  0.21925769  0.92155706    -0.22000
C71         C  0.24115037  0.23518256  0.92178780    -0.22000
C72         C  0.26299089  0.22477137  0.04644442    -0.22000
C73         C  0.24842015  0.24027822  0.04651612    -0.22000
C74         C  0.28327088  0.20785560  0.94525020    -0.17400
C75         C  0.28673631  0.21022081  0.01997212    -0.17400
C76         C  0.23611852  0.26513616  0.02035496    -0.17400
C77         C  0.23467623  0.26451698  0.94564708    -0.17400
H78         H  0.32100771  0.19029769  0.96121377     0.15500
H79         H  0.32279724  0.19152277  0.00174275     0.15500
H80         H  0.22658328  0.30452389  0.96285949     0.15500
H81         H  0.22637514  0.30449665  0.00341215     0.15500
H82         H  0.25712697  0.20797006  0.90945083     0.13800
H83         H  0.22984926  0.23855472  0.90992195     0.13800
H84         H  0.26760754  0.21566133  0.05955707     0.13800
H85         H  0.23961606  0.24556891  0.05970324     0.13800
H86         H  0.26554844  0.21876761  0.98309782     0.27100
H87         H  0.24115941  0.24410270  0.98306983     0.27100
N88         N  0.28569691  0.99025988  0.21404891    -0.35700
N89         N  0.26412829  0.95847516  0.23713571    -0.56200
N90         N  0.24298272  0.99073007  0.26123726    -0.35700
N91         N  0.26685757  0.02223315  0.24020430    -0.56200
C92         C  0.29565757  0.97302059  0.20757461     0.27900
C93         C  0.29854894  0.00640045  0.21044455     0.27900
C94         C  0.23692980  0.97385783  0.27180155     0.27900
C95         C  0.23700085  0.00749839  0.27214807     0.27900
C96         C  0.27055340  0.94723364  0.22075337     0.36500
C97         C  0.24951343  0.94714270  0.24696581     0.36500
C98         C  0.27741145  0.03424750  0.22687735     0.36500
C99         C  0.25325636  0.03460825  0.25023175     0.36500
C100        C  0.31513663  0.97827895  0.19999496    -0.21000
C101        C  0.31673691  0.99929336  0.20129909    -0.21000
C102        C  0.22692008  0.98001830  0.28970021    -0.21000
C103        C  0.22671049  0.00116995  0.28977098    -0.21000
C104        C  0.25982441  0.92873555  0.22016774    -0.22000
C105        C  0.24679017  0.92854383  0.23692060    -0.22000
C106        C  0.27081133  0.05446062  0.22878984    -0.22000
C107        C  0.25546288  0.05466642  0.24349675    -0.22000
C108        C  0.28715484  0.95284901  0.20739387    -0.17400
C109        C  0.29368583  0.02743382  0.21380957    -0.17400
C110        C  0.23962264  0.02830441  0.26613000    -0.17400
C111        C  0.23868727  0.95313301  0.26501680    -0.17400
H112        H  0.32690176  0.96808816  0.19377242     0.15500
H113        H  0.32978855  0.00821372  0.19579119     0.15500
H114        H  0.21996853  0.97029600  0.30129033     0.15500
H115        H  0.21956584  0.01074309  0.30142348     0.15500
H116        H  0.26128558  0.91653839  0.20893277     0.13800
H117        H  0.23622787  0.91624715  0.24102645     0.13800
H118        H  0.27655631  0.06776139  0.22062782     0.13800
H119        H  0.24712326  0.06812528  0.24882065     0.13800
H120        H  0.27042085  0.99109508  0.21931075     0.27100
H121        H  0.24972588  0.99078547  0.24681299     0.27100
N122        N  0.01274475  0.26497020  0.21632551    -0.35700
N123        N  0.97835440  0.24570244  0.23895676    -0.56200
N124        N  0.00907081  0.22587127  0.26547266    -0.35700
N125        N  0.04316283  0.24726468  0.24465811    -0.56200
C126        C  0.99608492  0.27564139  0.20936249     0.27900
C127        C  0.02995871  0.27607015  0.21178760     0.27900
C128        C  0.99108134  0.21931963  0.27433795     0.27900
C129        C  0.02525373  0.21970196  0.27743393     0.27900
C130        C  0.96804771  0.25278613  0.22236440     0.36500
C131        C  0.96591378  0.23140369  0.24758443     0.36500
C132        C  0.05655221  0.25633719  0.23136898     0.36500
C133        C  0.05482667  0.23572593  0.25756552     0.36500
C134        C  0.00279490  0.29369770  0.20024714    -0.21000
C135        C  0.02420226  0.29392590  0.20170985    -0.21000
C136        C  0.99597415  0.20918744  0.29241414    -0.21000
C137        C  0.01730361  0.20866885  0.29386216    -0.21000
C138        C  0.94890044  0.24311306  0.22044550    -0.22000
C139        C  0.94766270  0.22933148  0.23629505    -0.22000
C140        C  0.07686249  0.25090667  0.23607917    -0.22000
C141        C  0.07582951  0.23827479  0.25284577    -0.22000
C142        C  0.97515106  0.26884571  0.20977247    -0.17400
C143        C  0.05080794  0.27006854  0.21551327    -0.17400
C144        C  0.04697729  0.22274986  0.27343320    -0.17400
C145        C  0.97052234  0.22070636  0.26588354    -0.17400
H146        H  0.99327633  0.30535434  0.19302150     0.15500
H147        H  0.03440325  0.30584501  0.19594754     0.15500
H148        H  0.98541742  0.20213078  0.30326146     0.15500
H149        H  0.02572063  0.20039597  0.30553905     0.15500
H150        H  0.93714664  0.24565030  0.20878365     0.13800
H151        H  0.93477474  0.21898791  0.23917174     0.13800
H152        H  0.09104303  0.25572813  0.22846776     0.13800
H153        H  0.08920597  0.23176856  0.26057828     0.13800
H154        H  0.01249613  0.25031099  0.22251416     0.27100
H155        H  0.01028937  0.23315981  0.25150102     0.27100
N156        N  0.50828188  0.25413027  0.25511294    -0.35700
N157        N  0.54088847  0.23600848  0.22964830    -0.56200
N158        N  0.50822424  0.21732940  0.20440798    -0.35700
N159        N  0.47577078  0.23580305  0.22968848    -0.56200
C160        C  0.52521227  0.25763651  0.26703505     0.27900
C161        C  0.49124154  0.25777482  0.26688081     0.27900
C162        C  0.52524812  0.21263295  0.19294539     0.27900
C163        C  0.49111377  0.21255134  0.19307001     0.27900
C164        C  0.55341608  0.24581842  0.24323702     0.36500
C165        C  0.55341635  0.22576845  0.21638251     0.36500
C166        C  0.46328513  0.24568988  0.24313241     0.36500
C167        C  0.46310147  0.22616017  0.21622868     0.36500
C168        C  0.51877802  0.26317172  0.28665354    -0.21000
C169        C  0.49739477  0.26368384  0.28641930    -0.21000
C170        C  0.51878094  0.20481617  0.17411856    -0.21000
C171        C  0.49735673  0.20464082  0.17426294    -0.21000
C172        C  0.57412871  0.24203402  0.23825332    -0.22000
C173        C  0.57406832  0.22866473  0.22194335    -0.22000
C174        C  0.44252107  0.24239653  0.23820656    -0.22000
C175        C  0.44239574  0.22967875  0.22137829    -0.22000
C176        C  0.54635514  0.25717969  0.26061244    -0.17400
C177        C  0.47025263  0.25692750  0.26032825    -0.17400
C178        C  0.46991457  0.21454824  0.19915158    -0.17400
C179        C  0.54654327  0.21433835  0.19902624    -0.17400
H180        H  0.52851668  0.26692894  0.29972169     0.15500
H181        H  0.48753510  0.26798302  0.29921752     0.15500
H182        H  0.52850594  0.19973662  0.16148963     0.15500
H183        H  0.48747255  0.19941304  0.16181672     0.15500
H184        H  0.58806036  0.24776679  0.24562643     0.13800
H185        H  0.58782913  0.22201632  0.21502321     0.13800
H186        H  0.42888877  0.24807061  0.24624358     0.13800
H187        H  0.42859341  0.22386094  0.21376833     0.13800
H188        H  0.50833073  0.25097175  0.23949504     0.27100
H189        H  0.50830041  0.22242329  0.21947071     0.27100
N190        N  0.23962386  0.22096449  0.48450607    -0.35700
N191        N  0.26139148  0.24684411  0.51455450    -0.56200
N192        N  0.28171601  0.26841056  0.48088633    -0.35700
N193        N  0.26224724  0.24095909  0.45005479    -0.56200
C194        C  0.22965961  0.21495340  0.50198103     0.27900
C195        C  0.23077136  0.21105728  0.46819734     0.27900
C196        C  0.29434457  0.27338054  0.49678249     0.27900
C197        C  0.29244318  0.27218237  0.46342290     0.27900
C198        C  0.24666686  0.23911099  0.52720525     0.36500
C199        C  0.27115399  0.26201785  0.52503707     0.36500
C200        C  0.24519252  0.23265080  0.44117026     0.36500
C201        C  0.26643488  0.25835255  0.43957780     0.36500
C202        C  0.21439058  0.20082629  0.49656114    -0.21000
C203        C  0.21430108  0.19936560  0.47557276    -0.21000
C204        C  0.31337082  0.28028146  0.48930545    -0.21000
C205        C  0.31214742  0.27956553  0.46819642    -0.21000
C206        C  0.24689142  0.24977832  0.54571580    -0.22000
C207        C  0.26261605  0.26404894  0.54445144    -0.22000
C208        C  0.23798254  0.24532752  0.42564375    -0.22000
C209        C  0.25193160  0.26134120  0.42416121    -0.22000
C210        C  0.23321139  0.22238493  0.52253507    -0.17400
C211        C  0.23640100  0.21360213  0.44689969    -0.17400
C212        C  0.28390687  0.27080554  0.44348702    -0.17400
C213        C  0.28856553  0.27310446  0.51773192    -0.17400
H214        H  0.20359056  0.19270340  0.50630977     0.15500
H215        H  0.20216347  0.19162570  0.46702903     0.15500
H216        H  0.32662361  0.28563120  0.49813426     0.15500
H217        H  0.32424496  0.28422634  0.45758041     0.15500
H218        H  0.23676196  0.24754863  0.55882233     0.13800
H219        H  0.26714850  0.27478537  0.55637248     0.13800
H220        H  0.22423409  0.24307614  0.41624156     0.13800
H221        H  0.25127864  0.27392331  0.41335751     0.13800
H222        H  0.25197508  0.23113734  0.48364096     0.27100
H223        H  0.26609085  0.26408489  0.48172818     0.27100
N224        N  0.28652839  0.48881225  0.25234470    -0.35700
N225        N  0.26307168  0.52169662  0.23361586    -0.56200
N226        N  0.23555230  0.49076663  0.21424802    -0.35700
N227        N  0.26129692  0.45807639  0.23058018    -0.56200
C228        C  0.29947339  0.50499315  0.25546008     0.27900
C229        C  0.29798503  0.47154378  0.25470234     0.27900
C230        C  0.22861163  0.50822185  0.20535132     0.27900
C231        C  0.22866625  0.47474806  0.20272425     0.27900
C232        C  0.27434254  0.53267163  0.24741276     0.36500
C233        C  0.24682105  0.53365313  0.22799640     0.36500
C234        C  0.27200520  0.44553656  0.24321671     0.36500
C235        C  0.24619825  0.44652486  0.22183818     0.36500
C236        C  0.31940588  0.49782779  0.25969446    -0.21000
C237        C  0.31839788  0.47673766  0.25948521    -0.21000
C238        C  0.21668901  0.50321447  0.18824884    -0.21000
C239        C  0.21682902  0.48214114  0.18653119    -0.21000
C240        C  0.26511612  0.55164206  0.25064892    -0.22000
C241        C  0.24787715  0.55240387  0.23808593    -0.22000
C242        C  0.26377797  0.42584912  0.24243958    -0.22000
C243        C  0.24745143  0.42645476  0.22877100    -0.22000
C244        C  0.29334928  0.52593839  0.25625145    -0.17400
C245        C  0.29021584  0.45124639  0.25394997    -0.17400
C246        C  0.23212893  0.45362469  0.20677339    -0.17400
C247        C  0.23202109  0.52849093  0.21270755    -0.17400
H248        H  0.33320427  0.50685409  0.26296057     0.15500
H249        H  0.33124762  0.46640865  0.26256287     0.15500
H250        H  0.20866445  0.51364296  0.17803107     0.15500
H251        H  0.20898334  0.47328270  0.17474109     0.15500
H252        H  0.27029218  0.56371940  0.26090193     0.13800
H253        H  0.23728159  0.56525879  0.23661342     0.13800
H254        H  0.26926502  0.41237822  0.25050467     0.13800
H255        H  0.23772536  0.41359225  0.22432283     0.13800
H256        H  0.27046531  0.48937334  0.25027684     0.27100
H257        H  0.24381931  0.48996961  0.22789141     0.27100
N258        N  0.24087412  0.71363250  0.98926299    -0.35700
N259        N  0.26276593  0.73674504  0.02140230    -0.56200
N260        N  0.28307948  0.76154593  0.98929344    -0.35700
N261        N  0.26316945  0.73648014  0.95723920    -0.56200
C262        C  0.23406793  0.70330734  0.00608364     0.27900
C263        C  0.23368258  0.70359658  0.97236251     0.27900
C264        C  0.29343050  0.76817318  0.00624057     0.27900
C265        C  0.29439087  0.76732240  0.97264189     0.27900
C266        C  0.24974227  0.72577802  0.03356176     0.36500
C267        C  0.27173898  0.75125076  0.03344960     0.36500
C268        C  0.24978599  0.72591298  0.94504519     0.36500
C269        C  0.27316235  0.75021998  0.94513722     0.36500
C270        C  0.22247241  0.68646807  0.99971894    -0.21000
C271        C  0.22194343  0.68684351  0.97862629    -0.21000
C272        C  0.31129498  0.77859568  0.00024612    -0.21000
C273        C  0.31192166  0.77801782  0.97912775    -0.21000
C274        C  0.25065129  0.73328039  0.05350363    -0.22000
C275        C  0.26459814  0.74932418  0.05344456    -0.22000
C276        C  0.25155734  0.73285926  0.92498278    -0.22000
C277        C  0.26627045  0.74823828  0.92506628    -0.22000
C278        C  0.23697910  0.70911472  0.02704246    -0.17400
C279        C  0.23654420  0.70957706  0.95148247    -0.17400
C280        C  0.28902705  0.76396982  0.95171166    -0.17400
C281        C  0.28700663  0.76562276  0.02697650    -0.17400
H282        H  0.21476189  0.67519762  0.00925679     0.15500
H283        H  0.21350214  0.67604964  0.96909097     0.15500
H284        H  0.32278602  0.78584093  0.01006817     0.15500
H285        H  0.32396732  0.78475057  0.96962928     0.15500
H286        H  0.24205867  0.72787144  0.06673573     0.13800
H287        H  0.26895047  0.75854575  0.06662898     0.13800
H288        H  0.24325276  0.72737051  0.91157915     0.13800
H289        H  0.27139947  0.75688202  0.91181901     0.13800
H290        H  0.24901690  0.72697952  0.98930002     0.27100
H291        H  0.26882588  0.75449607  0.98913617     0.27100
N292        N  0.78701817  0.25423177  0.97691916    -0.35700
N293        N  0.76508531  0.23226440  0.00952278    -0.56200
N294        N  0.74084993  0.21018355  0.97854657    -0.35700
N295        N  0.76035640  0.23431097  0.94614954    -0.56200
C296        C  0.79497376  0.26398775  0.99352436     0.27900
C297        C  0.79207231  0.26531117  0.96011856     0.27900
C298        C  0.73056189  0.20456586  0.99573676     0.27900
C299        C  0.72860948  0.20526454  0.96238008     0.27900
C300        C  0.77957092  0.24191812  0.02115997     0.36500
C301        C  0.75494344  0.21905467  0.02202496     0.36500
C302        C  0.77341442  0.24439881  0.93345276     0.36500
C303        C  0.74968658  0.22087377  0.93432943     0.36500
C304        C  0.80570568  0.28135824  0.98712788    -0.21000
C305        C  0.80392169  0.28216542  0.96608985    -0.21000
C306        C  0.71158829  0.19572438  0.99037425    -0.21000
C307        C  0.71039092  0.19611903  0.96932433    -0.21000
C308        C  0.77840100  0.23499867  0.04125304    -0.22000
C309        C  0.76283650  0.22050766  0.04178754    -0.22000
C310        C  0.77071288  0.23761761  0.91339634    -0.22000
C311        C  0.75580164  0.22256403  0.91399119    -0.22000
C312        C  0.79315947  0.25763762  0.01428120    -0.17400
C313        C  0.78706024  0.26031874  0.93946884    -0.17400
C314        C  0.73375749  0.20780780  0.94146314    -0.17400
C315        C  0.73802769  0.20636025  0.01612258    -0.17400
H316        H  0.81399104  0.29233970  0.99661734     0.15500
H317        H  0.81066258  0.29383816  0.95632224     0.15500
H318        H  0.69983522  0.18952853  0.00056857     0.15500
H319        H  0.69757114  0.19031252  0.96015943     0.15500
H320        H  0.78772610  0.23994484  0.05421935     0.13800
H321        H  0.75781185  0.21211619  0.05523221     0.13800
H322        H  0.77861773  0.24293331  0.89971979     0.13800
H323        H  0.74995333  0.21403613  0.90090425     0.13800
H324        H  0.77905893  0.24018322  0.97696717     0.27100
H325        H  0.75607134  0.21600518  0.97779363     0.27100
N326        N  0.00729375  0.26069853  0.75869811    -0.35700
N327        N  0.04036737  0.24179961  0.73417835    -0.56200
N328        N  0.00853921  0.22240647  0.70852303    -0.35700
N329        N  0.97566618  0.23878587  0.73545777    -0.56200
C330        C  0.02453304  0.26499947  0.76994297     0.27900
C331        C  0.99053582  0.26277050  0.77122021     0.27900
C332        C  0.02598260  0.21243544  0.70210146     0.27900
C333        C  0.99184535  0.21139493  0.70205984     0.27900
C334        C  0.05088584  0.25739219  0.74312364     0.36500
C335        C  0.05188778  0.23584267  0.71785400     0.36500
C336        C  0.96297658  0.25044470  0.74734419     0.36500
C337        C  0.96357231  0.23062043  0.72051691     0.36500
C338        C  0.01862899  0.26969446  0.78993294    -0.21000
C339        C  0.99716762  0.26849043  0.79066741    -0.21000
C340        C  0.02030059  0.19506407  0.69112000    -0.21000
C341        C  0.99884831  0.19454956  0.69083308    -0.21000
C342        C  0.06896462  0.26159067  0.73217448    -0.22000
C343        C  0.06982991  0.24757002  0.71638499    -0.22000
C344        C  0.94270420  0.24954405  0.74003581    -0.22000
C345        C  0.94300764  0.23671000  0.72328697    -0.22000
C346        C  0.04516825  0.26641579  0.76206519    -0.17400
C347        C  0.96935779  0.26124683  0.76514165    -0.17400
C348        C  0.97048418  0.21636097  0.70553522    -0.17400
C349        C  0.04684015  0.21917992  0.70499440    -0.17400
H350        H  0.02869149  0.27392814  0.80260631     0.15500
H351        H  0.98749795  0.27162306  0.80395024     0.15500
H352        H  0.03051480  0.18399073  0.68382564     0.15500
H353        H  0.98957944  0.18297860  0.68312978     0.15500
H354        H  0.08054338  0.27324635  0.73546975     0.13800
H355        H  0.08209131  0.24625946  0.70501379     0.13800
H356        H  0.92902055  0.25703109  0.74628514     0.13800
H357        H  0.92950227  0.23220151  0.71440111     0.13800
H358        H  0.00692722  0.25812176  0.74295886     0.27100
H359        H  0.00798204  0.23638735  0.71617172     0.27100
N360        N  0.73537321  0.48137921  0.25455174    -0.35700
N361        N  0.75950013  0.44905536  0.23450268    -0.56200
N362        N  0.78485044  0.48054177  0.21366584    -0.35700
N363        N  0.76089485  0.51284365  0.23380481    -0.56200
C364        C  0.72785804  0.46481248  0.26480691     0.27900
C365        C  0.72848171  0.49841502  0.26448143     0.27900
C366        C  0.79003168  0.46352635  0.20269051     0.27900
C367        C  0.79055816  0.49714141  0.20233495     0.27900
C368        C  0.74641839  0.43692102  0.24538369     0.36500
C369        C  0.77154968  0.43639635  0.22305444     0.36500
C370        C  0.74979192  0.52533920  0.24637625     0.36500
C371        C  0.77512938  0.52479441  0.22411720     0.36500
C372        C  0.71574267  0.47148210  0.28117464    -0.21000
C373        C  0.71604756  0.49256850  0.28091258    -0.21000
C374        C  0.79949052  0.46952285  0.18445990    -0.21000
C375        C  0.79921005  0.49053920  0.18399587    -0.21000
C376        C  0.75001185  0.41646442  0.24057465    -0.22000
C377        C  0.76589395  0.41613042  0.22648954    -0.22000
C378        C  0.75700407  0.54533841  0.24458111    -0.22000
C379        C  0.77326153  0.54491228  0.23091308    -0.22000
C380        C  0.73180345  0.44378913  0.26025183    -0.17400
C381        C  0.73350168  0.51916656  0.25982769    -0.17400
C382        C  0.78867503  0.51814654  0.20810358    -0.17400
C383        C  0.78668164  0.44271224  0.20853652    -0.17400
H384        H  0.70776186  0.46214645  0.29243731     0.15500
H385        H  0.70842264  0.50246264  0.29200024     0.15500
H386        H  0.80578873  0.45998214  0.17236166     0.15500
H387        H  0.80486552  0.49988512  0.17146165     0.15500
H388        H  0.74198528  0.40311993  0.24652556     0.13800
H389        H  0.77222218  0.40248287  0.21928308     0.13800
H390        H  0.75141115  0.55889728  0.25249278     0.13800
H391        H  0.78246523  0.55807404  0.22639728     0.13800
H392        H  0.74449045  0.48116533  0.24143418     0.27100
H393        H  0.77864426  0.48072637  0.22840618     0.27100
N394        N  0.28467135  0.49095080  0.71259272    -0.35700
N395        N  0.26276243  0.52223061  0.73698571    -0.56200
N396        N  0.23737337  0.48974272  0.75524746    -0.35700
N397        N  0.26194616  0.45845769  0.73332375    -0.56200
C398        C  0.29553546  0.50799358  0.70749193     0.27900
C399        C  0.29617940  0.47446898  0.70676232     0.27900
C400        C  0.23261625  0.50585666  0.76764076     0.27900
C401        C  0.23156645  0.47241231  0.76519319     0.27900
C402        C  0.27235837  0.53462425  0.72328508     0.36500
C403        C  0.24865868  0.53398091  0.74709547     0.36500
C404        C  0.27231595  0.44694109  0.71930275     0.36500
C405        C  0.24674000  0.44641915  0.74116958     0.36500
C406        C  0.31412547  0.50232697  0.69814085    -0.21000
C407        C  0.31462160  0.48120814  0.69784418    -0.21000
C408        C  0.22340509  0.49868044  0.78549694    -0.21000
C409        C  0.22280323  0.47762892  0.78399358    -0.21000
C410        C  0.26455175  0.55442662  0.72493638    -0.22000
C411        C  0.24957630  0.55402700  0.74007055    -0.22000
C412        C  0.26369564  0.42744280  0.71829867    -0.22000
C413        C  0.24751574  0.42709878  0.73217036    -0.22000
C414        C  0.28858252  0.52851457  0.70981946    -0.17400
C415        C  0.28994613  0.45357421  0.70798070    -0.17400
C416        C  0.23342508  0.45202650  0.75762781    -0.17400
C417        C  0.23540765  0.52693945  0.76298604    -0.17400
H418        H  0.32606447  0.51237498  0.69205114     0.15500
H419        H  0.32703083  0.47189120  0.69144990     0.15500
H420        H  0.21775230  0.50769080  0.79834609     0.15500
H421        H  0.21660739  0.46734081  0.79550664     0.15500
H422        H  0.26922952  0.56778990  0.71622397     0.13800
H423        H  0.24037170  0.56698397  0.74525555     0.13800
H424        H  0.26862034  0.41475440  0.70867057     0.13800
H425        H  0.23759300  0.41405261  0.73542935     0.13800
H426        H  0.26965957  0.49073928  0.71845579     0.27100
H427        H  0.24326935  0.49052975  0.74043567     0.27100
C428        C  0.87934066  0.62844273  0.84774641    -0.01600
N429        N  0.98779494  0.52645587  0.96114665    -0.05200
N430        N  0.98424241  0.54053286  0.94703632    -0.57300
N431        N  0.97222130  0.51297703  0.00802208    -0.04900
N432        N  0.95731563  0.51837164  0.02099183    -0.59400
N433        N  0.98737485  0.52664371  0.00823579    -0.04500
N434        N  0.98306965  0.54149066  0.02145203    -0.57300
N435        N  0.97283555  0.51263772  0.96096646    -0.04100
N436        N  0.95895140  0.51686178  0.94659835    -0.59800
C437        C  0.96637169  0.53419588  0.93788730     0.97000
C438        C  0.96431349  0.53612780  0.02940733     0.96800
N439        N  0.98387009  0.44885462  0.00706317    -0.05400
N440        N  0.97807859  0.43403433  0.01965563    -0.57900
N441        N  0.97087323  0.46501476  0.96061747    -0.03500
N442        N  0.95632069  0.46226898  0.94664192    -0.59100
N443        N  0.98460599  0.45002933  0.95998297    -0.05400
N444        N  0.97959159  0.43669256  0.94543366    -0.58100
N445        N  0.96996817  0.46377103  0.00724420    -0.03100
N446        N  0.95438918  0.45923845  0.01975062    -0.59200
Mn447      Mn  0.97109080  0.48863594  0.98439246     1.18400
C448        C  0.95970482  0.44071677  0.02752241     0.99100
C449        C  0.96197767  0.44469422  0.93714803     0.99700
N450        N  0.03737132  0.52494142  0.00825500    -0.05400
N451        N  0.04328685  0.54004039  0.02052489    -0.61700
N452        N  0.05138808  0.50996137  0.96157091    -0.04200
N453        N  0.06625530  0.51371852  0.94802555    -0.62400
N454        N  0.03732428  0.52466772  0.96138366    -0.04900
N455        N  0.04235075  0.53868965  0.94765210    -0.62000
N456        N  0.05146709  0.51020109  0.00818063    -0.03800
N457        N  0.06732537  0.51517017  0.02021129    -0.62700
Mn458      Mn  0.01242339  0.52611408  0.98483263     1.10700
C459        C  0.06193306  0.53374306  0.02795444     1.00300
C460        C  0.06037632  0.53164463  0.93931069     1.00400
N461        N  0.03392128  0.44821750  0.96003448    -0.04900
N462        N  0.03725171  0.43533485  0.94459305    -0.60300
N463        N  0.04868697  0.46083409  0.00791782    -0.04200
N464        N  0.06313650  0.45563011  0.02136516    -0.57000
N465        N  0.03374732  0.44693227  0.00750325    -0.05600
N466        N  0.03779004  0.43208765  0.02077071    -0.59900
N467        N  0.04886776  0.46203716  0.96083489    -0.04500
N468        N  0.06259545  0.45888885  0.94610724    -0.57100
Mn469      Mn  0.00907662  0.44787792  0.98368971     1.20200
Mn470      Mn  0.05049822  0.48560813  0.98481835     1.10100
Cl471      Cl  0.01078287  0.48706558  0.98467148    -0.85000
C472        C  0.05517846  0.44230966  0.93596232     0.97300
C473        C  0.05614536  0.43776328  0.02944386     0.97100
C474        C  0.87193746  0.34588960  0.11846423    -0.01600
C475        C  0.14879668  0.35441507  0.84412204    -0.01600
C476        C  0.14711290  0.62714058  0.84876833    -0.01600
C477        C  0.87140491  0.35432697  0.84793780    -0.01600
C478        C  0.87077338  0.62376834  0.12207685    -0.01600
N479        N  0.73371926  0.49577988  0.71799056    -0.35700
N480        N  0.75648091  0.46346848  0.73967701    -0.56200
N481        N  0.78318732  0.49479019  0.75763249    -0.35700
N482        N  0.75816396  0.52721950  0.73806268    -0.56200
C483        C  0.72054555  0.47967415  0.71643981     0.27900
C484        C  0.72236379  0.51290761  0.71450905     0.27900
C485        C  0.79019314  0.47790628  0.76765767     0.27900
C486        C  0.79011054  0.51154011  0.76801657     0.27900
C487        C  0.74449904  0.45178155  0.72714938     0.36500
C488        C  0.77148849  0.45103807  0.74730451     0.36500
C489        C  0.74905169  0.53867654  0.72322917     0.36500
C490        C  0.77395482  0.53858144  0.74588095     0.36500
C491        C  0.70055484  0.48662211  0.71215060    -0.21000
C492        C  0.70166211  0.50768705  0.71118309    -0.21000
C493        C  0.80188540  0.48402483  0.78450843    -0.21000
C494        C  0.80204756  0.50513772  0.78459943    -0.21000
C495        C  0.75165228  0.43171706  0.72704974    -0.22000
C496        C  0.76876685  0.43123412  0.73982585    -0.22000
C497        C  0.75922793  0.55737176  0.72153497    -0.22000
C498        C  0.77459936  0.55753267  0.73622978    -0.22000
C499        C  0.72657715  0.45888109  0.71670827    -0.17400
C500        C  0.73075638  0.53282360  0.71243666    -0.17400
C501        C  0.78715484  0.53238877  0.76220328    -0.17400
C502        C  0.78695529  0.45712153  0.76169463    -0.17400
H503        H  0.68669983  0.47744495  0.70962072     0.15500
H504        H  0.68885263  0.51795935  0.70775612     0.15500
H505        H  0.80977143  0.47429819  0.79549574     0.15500
H506        H  0.81043740  0.51460886  0.79549259     0.15500
H507        H  0.74511712  0.41877424  0.71879028     0.13800
H508        H  0.77809139  0.41781756  0.74325664     0.13800
H509        H  0.75589427  0.56977345  0.71102688     0.13800
H510        H  0.78515735  0.57015495  0.73916919     0.13800
H511        H  0.74987381  0.49499631  0.71940715     0.27100
H512        H  0.77499893  0.49490035  0.74392040     0.27100
C513        C  0.14430236  0.62604775  0.12544954    -0.01600
C514        C  0.14941273  0.34933680  0.12208899    -0.01600
N515        N  0.28028711  0.98823640  0.75739165    -0.35700
N516        N  0.25763435  0.95646388  0.73469575    -0.56200
N517        N  0.23760663  0.98878372  0.71052608    -0.35700
N518        N  0.25824954  0.02050907  0.73522736    -0.56200
C519        C  0.28386087  0.97133776  0.76898206     0.27900
C520        C  0.28473931  0.00495530  0.76909046     0.27900
C521        C  0.22634671  0.97202570  0.70485865     0.27900
C522        C  0.22634869  0.00571840  0.70555943     0.27900
C523        C  0.27281574  0.94508132  0.74355942     0.36500
C524        C  0.25015355  0.94528165  0.71877176     0.36500
C525        C  0.27355377  0.03167833  0.74426901     0.36500
C526        C  0.25068393  0.03197989  0.71960201     0.36500
C527        C  0.29037997  0.97745257  0.78837967    -0.21000
C528        C  0.29151274  0.99852537  0.78824556    -0.21000
C529        C  0.20790006  0.97844450  0.69580813    -0.21000
C530        C  0.20764045  0.99955001  0.69674439    -0.21000
C531        C  0.27522776  0.92672632  0.73303952    -0.22000
C532        C  0.26053612  0.92660243  0.71766869    -0.22000
C533        C  0.27559758  0.05041814  0.73441145    -0.22000
C534        C  0.26140970  0.05042003  0.71855986    -0.22000
C535        C  0.28338805  0.95064424  0.76184105    -0.17400
C536        C  0.28444544  0.02564733  0.76222373    -0.17400
C537        C  0.23323039  0.02650325  0.70733466    -0.17400
C538        C  0.23305315  0.95124890  0.70634197    -0.17400
H539        H  0.29462903  0.96774145  0.80116989     0.15500
H540        H  0.29728189  0.00784097  0.80076314     0.15500
H541        H  0.19595405  0.96904926  0.68879253     0.15500
H542        H  0.19519145  0.00920901  0.69106425     0.15500
H543        H  0.28622962  0.91454890  0.73626340     0.13800
H544        H  0.25795482  0.91411813  0.70698378     0.13800
H545        H  0.28608097  0.06288282  0.73819997     0.13800
H546        H  0.25902207  0.06275904  0.70771685     0.13800
H547        H  0.27660277  0.98832920  0.74185725     0.27100
H548        H  0.25273934  0.98866331  0.71622380     0.27100
N549        N  0.52073016  0.72023812  0.25286146    -0.35700
N550        N  0.55398631  0.74498775  0.23413457    -0.56200
N551        N  0.52231326  0.76775297  0.21200117    -0.35700
N552        N  0.48909212  0.74531700  0.23333625    -0.56200
C553        C  0.53745322  0.71559704  0.26462659     0.27900
C554        C  0.50348536  0.71525375  0.26374844     0.27900
C555        C  0.53960702  0.77925507  0.20850762     0.27900
C556        C  0.50546415  0.77972029  0.20821609     0.27900
C557        C  0.56487111  0.72880203  0.24140823     0.36500
C558        C  0.56573238  0.75341190  0.21911346     0.36500
C559        C  0.47683708  0.73006490  0.24064719     0.36500
C560        C  0.47754000  0.75562653  0.21938563     0.36500
C561        C  0.53077889  0.70764455  0.28324585    -0.21000
C562        C  0.50929870  0.70750498  0.28271470    -0.21000
C563        C  0.53356291  0.79887577  0.20269243    -0.21000
C564        C  0.51205399  0.79907415  0.20226085    -0.21000
C565        C  0.58366415  0.72690089  0.23110293    -0.22000
C566        C  0.58400778  0.74225768  0.21662238    -0.22000
C567        C  0.45733961  0.73083851  0.23147057    -0.22000
C568        C  0.45776112  0.74708655  0.21804275    -0.22000
C569        C  0.55846864  0.71674461  0.25818453    -0.17400
C570        C  0.48276367  0.71627878  0.25636174    -0.17400
C571        C  0.48438079  0.77314553  0.20849578    -0.17400
C572        C  0.56053801  0.77184907  0.20882057    -0.17400
H573        H  0.54038151  0.70217123  0.29576193     0.15500
H574        H  0.49911164  0.70198584  0.29475979     0.15500
H575        H  0.54358934  0.81165832  0.19879234     0.15500
H576        H  0.50234754  0.81196137  0.19793418     0.15500
H577        H  0.59571775  0.71554306  0.23364442     0.13800
H578        H  0.59640393  0.74502298  0.20568616     0.13800
H579        H  0.44415672  0.72082169  0.23420815     0.13800
H580        H  0.44496026  0.75205159  0.20841777     0.13800
H581        H  0.52111726  0.72508237  0.23765923     0.27100
H582        H  0.52198174  0.75213862  0.21524168     0.27100
N583        N  0.50914646  0.27050488  0.72155050    -0.35700
N584        N  0.54232324  0.24649507  0.74075730    -0.56200
N585        N  0.51102617  0.21949631  0.75841180    -0.35700
N586        N  0.47808098  0.24165934  0.73698903    -0.56200
C587        C  0.52627185  0.27775192  0.71185963     0.27900
C588        C  0.49253547  0.27516836  0.70966194     0.27900
C589        C  0.52870387  0.20906657  0.76305618     0.27900
C590        C  0.49461302  0.20689621  0.76202219     0.27900
C591        C  0.55322776  0.26322010  0.73496782     0.36500
C592        C  0.55433944  0.23649215  0.75447745     0.36500
C593        C  0.46525821  0.25590042  0.72868366     0.36500
C594        C  0.46604721  0.22956416  0.74898799     0.36500
C595        C  0.52043704  0.28742869  0.69379484    -0.21000
C596        C  0.49915332  0.28569573  0.69235912    -0.21000
C597        C  0.52340444  0.18947293  0.76955985    -0.21000
C598        C  0.50196550  0.18829182  0.76937906    -0.21000
C599        C  0.57238943  0.26374430  0.74479344    -0.22000
C600        C  0.57289301  0.24704479  0.75754057    -0.22000
C601        C  0.44493059  0.25264487  0.73508447    -0.22000
C602        C  0.44540217  0.23595553  0.74791396    -0.22000
C603        C  0.54687447  0.27677847  0.71942491    -0.17400
C604        C  0.47146671  0.27101607  0.71441274    -0.17400
C605        C  0.47322232  0.21233774  0.76026292    -0.17400
C606        C  0.54929554  0.21729700  0.76319333    -0.17400
H607        H  0.53039670  0.29509547  0.68280276     0.15500
H608        H  0.48961987  0.29165961  0.68001985     0.15500
H609        H  0.53383324  0.17741041  0.77455619     0.15500
H610        H  0.49294722  0.17527731  0.77452955     0.15500
H611        H  0.58478136  0.27486205  0.74287927     0.13800
H612        H  0.58566073  0.24296078  0.76760683     0.13800
H613        H  0.43118176  0.26130439  0.73083544     0.13800
H614        H  0.43198313  0.22919281  0.75538560     0.13800
H615        H  0.50872740  0.26377903  0.73598182     0.27100
H616        H  0.51007594  0.23484476  0.75443225     0.27100
C617        C  0.64834234  0.12287003  0.84171818    -0.01600
N618        N  0.53970170  0.94534809  0.95856245    -0.05200
N619        N  0.54455741  0.93060550  0.94537808    -0.57300
N620        N  0.55416677  0.96030760  0.00535296    -0.04900
N621        N  0.56865444  0.95631616  0.01920250    -0.59400
N622        N  0.53965948  0.94596036  0.00559124    -0.04500
N623        N  0.54419329  0.93183845  0.01949278    -0.57300
N624        N  0.55426196  0.95962060  0.95853907    -0.04100
N625        N  0.56931585  0.95481321  0.94556667    -0.59800
C626        C  0.56306019  0.93676058  0.93737066     0.97000
C627        C  0.56228609  0.93855869  0.02798572     0.96800
N628        N  0.54030476  0.02323394  0.00481721    -0.05400
N629        N  0.54455617  0.03709353  0.01904033    -0.57900
N630        N  0.55397339  0.00849162  0.95723765    -0.03500
N631        N  0.56753822  0.01220951  0.94232434    -0.59100
N632        N  0.53950742  0.02286981  0.95766814    -0.05400
N633        N  0.54294694  0.03654215  0.94317429    -0.58100
N634        N  0.55482421  0.00895937  0.00450949    -0.03100
N635        N  0.56927702  0.01286000  0.01844665    -0.59200
Mn636      Mn  0.55478855  0.98440146  0.98136848     1.18400
C637        C  0.56264037  0.03042720  0.02745032     0.99100
C638        C  0.56034591  0.02972562  0.93355985     0.99700
N639        N  0.48941753  0.94695521  0.00543074    -0.05400
N640        N  0.48425940  0.93321262  0.01945442    -0.61700
N641        N  0.47581810  0.96104220  0.95808395    -0.04200
N642        N  0.46105583  0.95680501  0.94462323    -0.62400
N643        N  0.48979374  0.94620950  0.95848912    -0.04900
N644        N  0.48469686  0.93156883  0.94530834    -0.62000
N645        N  0.47518048  0.96150158  0.00469832    -0.03800
N646        N  0.46014019  0.95798489  0.01804369    -0.62700
Mn647      Mn  0.51461743  0.94556528  0.98205704     1.10700
C648        C  0.46597166  0.94035553  0.02720828     1.00300
C649        C  0.46678851  0.93843823  0.93668794     1.00400
N650        N  0.49002965  0.02452856  0.95849798    -0.04900
N651        N  0.48493334  0.03948490  0.94572630    -0.60300
N652        N  0.47610746  0.00942302  0.00533308    -0.04200
N653        N  0.46203406  0.01300715  0.01972449    -0.57000
N654        N  0.49065692  0.02367368  0.00558676    -0.05600
N655        N  0.48660623  0.03738455  0.02006282    -0.59900
N656        N  0.47577788  0.00999463  0.95810769    -0.04500
N657        N  0.46083010  0.01467781  0.94496916    -0.57100
Mn658      Mn  0.51521953  0.02409418  0.98168670     1.20200
Mn659      Mn  0.47539208  0.98549713  0.98140309     1.10100
Cl660      Cl  0.51502061  0.98485928  0.98158559    -0.85000
C661        C  0.46673313  0.03305862  0.93726267     0.97300
C662        C  0.46882437  0.03040114  0.02895631     0.97100
C663        C  0.66116249  0.85763474  0.12102907    -0.01600
C664        C  0.37116254  0.85064552  0.84818320    -0.01600
C665        C  0.37574946  0.12508294  0.84792969    -0.01600
C666        C  0.64843357  0.84755062  0.83887134    -0.01600
C667        C  0.37757950  0.85259804  0.12331580    -0.01600
N668        N  0.50149700  0.71340833  0.70919400    -0.35700
N669        N  0.53610915  0.73290440  0.73234428    -0.56200
N670        N  0.50564776  0.75665570  0.75525484    -0.35700
N671        N  0.47116454  0.73462594  0.73442688    -0.56200
C672        C  0.51778182  0.70134278  0.70373462     0.27900
C673        C  0.48378759  0.70344436  0.70361931     0.27900
C674        C  0.52342943  0.76320858  0.76450550     0.27900
C675        C  0.48933195  0.76283110  0.76695956     0.27900
C676        C  0.54714702  0.72249635  0.71800392     0.36500
C677        C  0.54933039  0.74669781  0.74095314     0.36500
C678        C  0.45777377  0.72609710  0.72072899     0.36500
C679        C  0.45988567  0.74776726  0.74609907     0.36500
C680        C  0.51032264  0.68357788  0.69445311    -0.21000
C681        C  0.48891357  0.68494128  0.69431351    -0.21000
C682        C  0.51830638  0.77391060  0.78225113    -0.21000
C683        C  0.49686561  0.77361171  0.78383916    -0.21000
C684        C  0.56760383  0.72946924  0.71772904    -0.22000
C685        C  0.56897842  0.74479796  0.73224928    -0.22000
C686        C  0.43782373  0.73363871  0.72389202    -0.22000
C687        C  0.43912421  0.74726082  0.74000707    -0.22000
C688        C  0.53922406  0.70644474  0.70549336    -0.17400
C689        C  0.46311623  0.71076656  0.70615901    -0.17400
C690        C  0.46779774  0.76009892  0.76235073    -0.17400
C691        C  0.54410541  0.76050925  0.75703630    -0.17400
H692        H  0.51939635  0.67098162  0.68824303     0.15500
H693        H  0.47832493  0.67355734  0.68809110     0.15500
H694        H  0.52890230  0.78125767  0.79293971     0.15500
H695        H  0.48783805  0.78075753  0.79596475     0.15500
H696        H  0.58022248  0.72412036  0.70803441     0.13800
H697        H  0.58285314  0.75353602  0.73596764     0.13800
H698        H  0.42376616  0.72962467  0.71558267     0.13800
H699        H  0.42622612  0.75588505  0.74643496     0.13800
H700        H  0.50250509  0.72811800  0.71518496     0.27100
H701        H  0.50458543  0.74930474  0.74124221     0.27100
C702        C  0.37429644  0.12114507  0.11640827    -0.01600
C703        C  0.64937775  0.12423025  0.11732570    -0.01600
N704        N  0.00364660  0.71305443  0.21788558    -0.35700
N705        N  0.03757312  0.73282045  0.24063410    -0.56200
N706        N  0.00656653  0.75874175  0.26144283    -0.35700
N707        N  0.97263247  0.73685458  0.24108724    -0.56200
C708        C  0.02000675  0.70137349  0.21171939     0.27900
C709        C  0.98594697  0.70343630  0.21183714     0.27900
C710        C  0.02410668  0.76308906  0.27220902     0.27900
C711        C  0.99009676  0.76492406  0.27296665     0.27900
C712        C  0.04879731  0.72292154  0.22607704     0.36500
C713        C  0.05031642  0.74723896  0.24878659     0.36500
C714        C  0.95963807  0.72731547  0.22771485     0.36500
C715        C  0.96120056  0.75121361  0.25115886     0.36500
C716        C  0.01262898  0.68416785  0.20144109    -0.21000
C717        C  0.99119282  0.68547937  0.20146459    -0.21000
C718        C  0.01873741  0.77220070  0.29074916    -0.21000
C719        C  0.99731328  0.77339913  0.29121298    -0.21000
C720        C  0.06885910  0.73085603  0.22521765    -0.22000
C721        C  0.06974368  0.74642748  0.23945465    -0.22000
C722        C  0.93972081  0.73545938  0.22955060    -0.22000
C723        C  0.94071591  0.75058498  0.24437437    -0.22000
C724        C  0.04140732  0.70644486  0.21391325    -0.17400
C725        C  0.96522501  0.71078970  0.21449786    -0.17400
C726        C  0.96879032  0.76412302  0.26711137    -0.17400
C727        C  0.04486605  0.76051808  0.26513044    -0.17400
H728        H  0.02174440  0.67205845  0.19437495     0.15500
H729        H  0.98068823  0.67449490  0.19443897     0.15500
H730        H  0.02920816  0.77763921  0.30262779     0.15500
H731        H  0.98810928  0.77992663  0.30355475     0.15500
H732        H  0.08146915  0.72609414  0.21521117     0.13800
H733        H  0.08318011  0.75600648  0.24260428     0.13800
H734        H  0.92587642  0.73088419  0.22118063     0.13800
H735        H  0.92780890  0.75993485  0.24966252     0.13800
H736        H  0.00453009  0.72731399  0.22482244     0.27100
H737        H  0.00599720  0.75321253  0.24651482     0.27100
N738        N  0.74848970  0.99729460  0.21124376    -0.35700
N739        N  0.76946973  0.96741999  0.23692404    -0.56200
N740        N  0.78917270  0.00137399  0.26026040    -0.35700
N741        N  0.76555458  0.03105301  0.23664811    -0.56200
C742        C  0.73915128  0.97981530  0.20448323     0.27900
C743        C  0.73741723  0.01339983  0.20395096     0.27900
C744        C  0.79529401  0.98503033  0.27147976     0.27900
C745        C  0.79250600  0.01845191  0.27174526     0.27900
C746        C  0.76173352  0.95440090  0.22254460     0.36500
C747        C  0.78385404  0.95675947  0.24768683     0.36500
C748        C  0.75587012  0.04233486  0.22213721     0.36500
C749        C  0.77668668  0.04436854  0.24828061     0.36500
C750        C  0.72207830  0.98497213  0.19246508    -0.21000
C751        C  0.72110619  0.00605555  0.19196353    -0.21000
C752        C  0.80288041  0.99180629  0.29029129    -0.21000
C753        C  0.80119033  0.01288147  0.29042423    -0.21000
C754        C  0.77112401  0.93533540  0.22430738    -0.22000
C755        C  0.78509194  0.93680325  0.24022656    -0.22000
C756        C  0.76055797  0.06298815  0.22486209    -0.22000
C757        C  0.77379442  0.06425550  0.24135958    -0.22000
C758        C  0.74594547  0.95932859  0.20814995    -0.17400
C759        C  0.74182111  0.03456732  0.20723596    -0.17400
C760        C  0.78882707  0.03898193  0.26554750    -0.17400
C761        C  0.79502775  0.96424196  0.26495201    -0.17400
H762        H  0.71139210  0.97464157  0.18475214     0.15500
H763        H  0.70958552  0.01491019  0.18367889     0.15500
H764        H  0.80911602  0.98254009  0.30262316     0.15500
H765        H  0.80585592  0.02294935  0.30286581     0.15500
H766        H  0.76826085  0.92178378  0.21505793     0.13800
H767        H  0.79501391  0.92453302  0.24570705     0.13800
H768        H  0.75487405  0.07588154  0.21603402     0.13800
H769        H  0.78032895  0.07824890  0.24767345     0.13800
H770        H  0.76218157  0.99833929  0.21964898     0.27100
H771        H  0.78405204  0.00083154  0.24516227     0.27100
N772        N  0.78037481  0.22025365  0.49211576    -0.35700
N773        N  0.75941509  0.24322580  0.52490544    -0.56200
N774        N  0.74203410  0.27032999  0.49424690    -0.35700
N775        N  0.76078038  0.24498495  0.46123402    -0.56200
C776        C  0.78278080  0.20754223  0.50832255     0.27900
C777        C  0.78421594  0.20911844  0.47491552     0.27900
C778        C  0.73102439  0.27583309  0.51113552     0.27900
C779        C  0.73072607  0.27602170  0.47769996     0.27900
C780        C  0.77234371  0.23152850  0.53630630     0.36500
C781        C  0.75251559  0.25838882  0.53738510     0.36500
C782        C  0.77530851  0.23563301  0.44933951     0.36500
C783        C  0.75361996  0.26122152  0.45050167     0.36500
C784        C  0.78810025  0.18808097  0.50138708    -0.21000
C785        C  0.78886408  0.18903430  0.48029624    -0.21000
C786        C  0.71259473  0.28529547  0.50527965    -0.21000
C787        C  0.71239702  0.28543061  0.48416291    -0.21000
C788        C  0.77346318  0.23910812  0.55620027    -0.22000
C789        C  0.76086664  0.25617860  0.55688279    -0.22000
C790        C  0.77749802  0.24612894  0.43099221    -0.22000
C791        C  0.76338249  0.26208512  0.43153198    -0.22000
C792        C  0.78226306  0.21351963  0.52920312    -0.17400
C793        C  0.78558489  0.21714356  0.45472588    -0.17400
C794        C  0.73711653  0.27405721  0.45699677    -0.17400
C795        C  0.73761724  0.27325564  0.53167043    -0.17400
H796        H  0.79146431  0.17467965  0.51060606     0.15500
H797        H  0.79288465  0.17648413  0.47009289     0.15500
H798        H  0.70057400  0.29151701  0.51519406     0.15500
H799        H  0.70022046  0.29194485  0.47468419     0.15500
H800        H  0.78227584  0.23288353  0.56892172     0.13800
H801        H  0.75803287  0.26574655  0.57022213     0.13800
H802        H  0.78799115  0.24259008  0.41845650     0.13800
H803        H  0.76070221  0.27312035  0.41942438     0.13800
H804        H  0.77808355  0.23602957  0.49290644     0.27100
H805        H  0.75695360  0.26407418  0.49399122     0.27100
N806        N  0.24285878  0.76074108  0.47687033    -0.35700
N807        N  0.26503280  0.74062618  0.44258123    -0.56200
N808        N  0.28917838  0.71708880  0.47224168    -0.35700
N809        N  0.26503257  0.73507795  0.50623019    -0.56200
C810        C  0.23232662  0.76877149  0.46075735     0.27900
C811        C  0.23256168  0.76622015  0.49422400     0.27900
C812        C  0.29482001  0.70788159  0.45431973     0.27900
C813        C  0.29484982  0.70442786  0.48779280     0.27900
C814        C  0.25560889  0.75613105  0.43247238     0.36500
C815        C  0.28028475  0.73358208  0.43006287     0.36500
C816        C  0.25350985  0.74611684  0.51978811     0.36500
C817        C  0.27752312  0.72259777  0.51736158     0.36500
C818        C  0.21527550  0.77974669  0.46797872    -0.21000
C819        C  0.21541692  0.77813390  0.48903747    -0.21000
C820        C  0.30415641  0.68919281  0.45858309    -0.21000
C821        C  0.30465593  0.68725117  0.47954091    -0.21000
C822        C  0.26473102  0.75871420  0.41332337    -0.22000
C823        C  0.28069094  0.74478958  0.41203988    -0.22000
C824        C  0.25843206  0.74029920  0.53965541    -0.22000
C825        C  0.27335873  0.72526591  0.53811553    -0.22000
C826        C  0.23831695  0.76743777  0.43982535    -0.17400
C827        C  0.23829002  0.76110287  0.51464725    -0.17400
C828        C  0.29200917  0.70817820  0.50920498    -0.17400
C829        C  0.29303436  0.71643471  0.43429180    -0.17400
H830        H  0.20401734  0.78830940  0.45905417     0.15500
H831        H  0.20414514  0.78502890  0.49934766     0.15500
H832        H  0.31031509  0.67810218  0.44775253     0.15500
H833        H  0.31159562  0.67444595  0.48751653     0.15500
H834        H  0.26060344  0.76964906  0.40153751     0.13800
H835        H  0.29127022  0.74304478  0.39919716     0.13800
H836        H  0.25179007  0.74604985  0.55383338     0.13800
H837        H  0.28016701  0.71709335  0.55090982     0.13800
H838        H  0.25647230  0.75278912  0.47604221     0.27100
H839        H  0.28305818  0.73152268  0.47382685     0.27100
C840        C  0.87711425  0.13134303  0.35577546    -0.01600
N841        N  0.99468120  0.01245149  0.52482189    -0.05200
N842        N  0.99156663  0.02695594  0.53876816    -0.57300
N843        N  0.97736232  0.96613648  0.50996493    -0.04900
N844        N  0.96225986  0.95294166  0.51411591    -0.59400
N845        N  0.99217271  0.96505638  0.52394179    -0.04500
N846        N  0.98752431  0.95087508  0.53770933    -0.57300
N847        N  0.97997222  0.01304744  0.51073963    -0.04100
N848        N  0.96656537  0.02782554  0.51481033    -0.59800
C849        C  0.97406160  0.03654167  0.53215904     0.97000
C850        C  0.96883661  0.94342123  0.53139457     0.96800
N851        N  0.99112920  0.96715052  0.44634666    -0.05400
N852        N  0.98576872  0.95432190  0.43144101    -0.57900
N853        N  0.97859056  0.01435868  0.46261461    -0.03500
N854        N  0.96440545  0.02864577  0.45906072    -0.59100
N855        N  0.99277440  0.01426210  0.44801410    -0.05400
N856        N  0.98839133  0.02837362  0.43413578    -0.58100
N857        N  0.97685301  0.96726965  0.46089201    -0.03100
N858        N  0.96148313  0.95464290  0.45607602    -0.59200
Mn859      Mn  0.97774186  0.99012749  0.48610649     1.18400
C860        C  0.96729329  0.94645594  0.43778646     0.99100
C861        C  0.97079130  0.03743129  0.44133448     0.99700
N862        N  0.04194067  0.96320373  0.52301870    -0.05400
N863        N  0.04672299  0.94962824  0.53727668    -0.61700
N864        N  0.05857007  0.00953886  0.51006744    -0.04200
N865        N  0.07388208  0.02239483  0.51451707    -0.62400
N866        N  0.04410873  0.01007197  0.52441787    -0.04900
N867        N  0.04921291  0.02348818  0.53882549    -0.62000
N868        N  0.05617303  0.96311638  0.50842926    -0.03800
N869        N  0.07090007  0.94962579  0.51250226    -0.62700
Mn870      Mn  0.01815895  0.98765042  0.52462092     1.10700
C871        C  0.06477690  0.94123303  0.53044022     1.00300
C872        C  0.06779558  0.03106266  0.53244373     1.00400
N873        N  0.04239330  0.01255183  0.44793377    -0.04900
N874        N  0.04627086  0.02788421  0.43529154    -0.60300
N875        N  0.05526239  0.96435205  0.45985518    -0.04200
N876        N  0.06853205  0.94955678  0.45503406    -0.57000
N877        N  0.04031685  0.96548729  0.44606017    -0.05600
N878        N  0.04296989  0.95141613  0.43172420    -0.59900
N879        N  0.05728561  0.01115998  0.46177221    -0.04500
N880        N  0.07162848  0.02537632  0.45879376    -0.57100
Mn881      Mn  0.01672334  0.98991660  0.44654991     1.20200
Mn882      Mn  0.05730224  0.98695929  0.48494522     1.10100
Cl883      Cl  0.01746854  0.98859876  0.48557102    -0.85000
C884        C  0.06454136  0.03571505  0.44225955     0.97300
C885        C  0.06055570  0.94154704  0.43749042     0.97100
C886        C  0.86995488  0.85637556  0.35108147    -0.01600
C887        C  0.14657439  0.85215238  0.34461511    -0.01600
C888        C  0.15396586  0.84584048  0.61755793    -0.01600
C889        C  0.87654613  0.12448835  0.61804355    -0.01600
C890        C  0.87657570  0.84826938  0.61553103    -0.01600
N891        N  0.78251349  0.75821342  0.48370216    -0.35700
N892        N  0.75975267  0.73585927  0.45223901    -0.56200
N893        N  0.73630194  0.71414461  0.48451652    -0.35700
N894        N  0.75675971  0.73869778  0.51593886    -0.56200
C895        C  0.78899002  0.76854134  0.46679338     0.27900
C896        C  0.78787486  0.76953417  0.50035622     0.27900
C897        C  0.72568089  0.70812139  0.46757361     0.27900
C898        C  0.72436690  0.70952795  0.50107986     0.27900
C899        C  0.77336873  0.74578890  0.43983335     0.36500
C900        C  0.74933265  0.72225113  0.44032155     0.36500
C901        C  0.77111279  0.74824597  0.52781270     0.36500
C902        C  0.74657763  0.72530023  0.52826085     0.36500
C903        C  0.79897273  0.78647980  0.47293553    -0.21000
C904        C  0.79811197  0.78717077  0.49401328    -0.21000
C905        C  0.70681251  0.69946674  0.47346509    -0.21000
C906        C  0.70601408  0.70031319  0.49456618    -0.21000
C907        C  0.77121087  0.73876281  0.41983019    -0.22000
C908        C  0.75625109  0.72369155  0.42018244    -0.22000
C909        C  0.76983473  0.74108080  0.54781551    -0.22000
C910        C  0.75432224  0.72653220  0.54808453    -0.22000
C911        C  0.78678523  0.76198542  0.44602850    -0.17400
C912        C  0.78474293  0.76401150  0.52118903    -0.17400
C913        C  0.73000990  0.71235582  0.52196841    -0.17400
C914        C  0.73275754  0.70943360  0.44696015    -0.17400
H915        H  0.80630950  0.79793538  0.46335361     0.15500
H916        H  0.80453217  0.79923295  0.50359286     0.15500
H917        H  0.69486175  0.69308476  0.46357820     0.15500
H918        H  0.69336703  0.69471667  0.50404989     0.15500
H919        H  0.77931525  0.74409381  0.40628083     0.13800
H920        H  0.75080556  0.71510177  0.40697242     0.13800
H921        H  0.77915047  0.74580651  0.56086915     0.13800
H922        H  0.74934426  0.71784621  0.56135669     0.13800
H923        H  0.77573708  0.74379363  0.48405494     0.27100
H924        H  0.75135182  0.71993749  0.48475402     0.27100
C925        C  0.14875387  0.12573091  0.34956517    -0.01600
C926        C  0.14907471  0.13204401  0.62141537    -0.01600
N927        N  0.01574835  0.76153146  0.70915652    -0.35700
N928        N  0.04741034  0.73956296  0.73276692    -0.56200
N929        N  0.01445983  0.71816262  0.75451795    -0.35700
N930        N  0.98281590  0.73812125  0.72909983    -0.56200
C931        C  0.03321553  0.76532902  0.69814005     0.27900
C932        C  0.99925468  0.76510047  0.69669369     0.27900
C933        C  0.03136497  0.70828556  0.76205453     0.27900
C934        C  0.99739372  0.70731273  0.76010477     0.27900
C935        C  0.05980142  0.75320605  0.72313947     0.36500
C936        C  0.05918217  0.73077359  0.74748680     0.36500
C937        C  0.97110995  0.75242391  0.71945275     0.36500
C938        C  0.97035172  0.72923312  0.74326912     0.36500
C939        C  0.02775875  0.77146580  0.67847096    -0.21000
C940        C  0.00630782  0.77116783  0.67751783    -0.21000
C941        C  0.02495951  0.69101939  0.77275217    -0.21000
C942        C  0.00356729  0.69047301  0.77164003    -0.21000
C943        C  0.07966751  0.75293558  0.73156807    -0.22000
C944        C  0.07927090  0.73867891  0.74704953    -0.22000
C945        C  0.95106910  0.75256148  0.72746337    -0.22000
C946        C  0.95051523  0.73769696  0.74236844    -0.22000
C947        C  0.05387155  0.76452122  0.70572380    -0.17400
C948        C  0.97804678  0.76439420  0.70268935    -0.17400
C949        C  0.97637788  0.71298538  0.75637978    -0.17400
C950        C  0.05233510  0.71494405  0.76057598    -0.17400
H951        H  0.03813917  0.77583581  0.66611520     0.15500
H952        H  0.99694137  0.77528019  0.66432185     0.15500
H953        H  0.03465469  0.68011721  0.78087224     0.15500
H954        H  0.99372995  0.67914753  0.77895321     0.15500
H955        H  0.09310296  0.76182782  0.72684060     0.13800
H956        H  0.09232378  0.73443419  0.75669612     0.13800
H957        H  0.93812619  0.76223365  0.72298563     0.13800
H958        H  0.93703749  0.73369536  0.75153519     0.13800
H959        H  0.01508553  0.75813034  0.72472141     0.27100
H960        H  0.01445273  0.73212527  0.74700758     0.27100
N961        N  0.73959669  0.98522415  0.74980781    -0.35700
N962        N  0.76552258  0.95438016  0.72970134    -0.56200
N963        N  0.78516360  0.98713445  0.70546424    -0.35700
N964        N  0.76142222  0.01810681  0.72783966    -0.56200
C965        C  0.73539198  0.96862646  0.76163503     0.27900
C966        C  0.73289634  0.00208794  0.76009459     0.27900
C967        C  0.79715379  0.97086266  0.70011113     0.27900
C968        C  0.79553113  0.00439039  0.69988143     0.27900
C969        C  0.75198862  0.94179436  0.73954149     0.36500
C970        C  0.77566478  0.94277135  0.71557826     0.36500
C971        C  0.74550935  0.02903403  0.73595975     0.36500
C972        C  0.77029859  0.03018783  0.71344261     0.36500
C973        C  0.72564613  0.97509756  0.77956051    -0.21000
C974        C  0.72437274  0.99616492  0.77872928    -0.21000
C975        C  0.81526780  0.97784934  0.69076862    -0.21000
C976        C  0.81429591  0.99896910  0.69072396    -0.21000
C977        C  0.75386735  0.92198280  0.73187962    -0.22000
C978        C  0.76879131  0.92261993  0.71668111    -0.22000
C979        C  0.74432974  0.04817492  0.72674587    -0.22000
C980        C  0.76010659  0.04893168  0.71252207    -0.22000
C981        C  0.73864985  0.94778510  0.75594273    -0.17400
C982        C  0.73297489  0.02251333  0.75254910    -0.17400
C983        C  0.78801152  0.02482621  0.70170445    -0.17400
C984        C  0.79174548  0.94986799  0.70238743    -0.17400
H985        H  0.71958252  0.96570198  0.79183985     0.15500
H986        H  0.71741600  0.00595694  0.79032255     0.15500
H987        H  0.82787466  0.96867815  0.68454118     0.15500
H988        H  0.82599569  0.00916233  0.68443363     0.15500
H989        H  0.74546319  0.90843606  0.73676999     0.13800
H990        H  0.77408768  0.90968642  0.70758487     0.13800
H991        H  0.73334335  0.06038297  0.73001540     0.13800
H992        H  0.76365379  0.06179549  0.70262753     0.13800
H993        H  0.74532857  0.98500036  0.73492633     0.27100
H994        H  0.77021583  0.98637997  0.71146077     0.27100
N995        N  0.78458058  0.71628136  0.97873337    -0.35700
N996        N  0.76042883  0.73994903  0.94824234    -0.56200
N997        N  0.74104735  0.76295090  0.98113057    -0.35700
N998        N  0.76743199  0.74138937  0.01152462    -0.56200
C999        C  0.79389109  0.71009932  0.96107204     0.27900
C1000       C  0.79661448  0.70984418  0.99463616     0.27900
C1001       C  0.73488701  0.77396564  0.96455868     0.27900
C1002       C  0.73920455  0.77530107  0.99776475     0.27900
C1003       C  0.76891941  0.72557791  0.93577542     0.36500
C1004       C  0.74522288  0.74930495  0.93729868     0.36500
C1005       C  0.77760598  0.72742292  0.02325004     0.36500
C1006       C  0.75535389  0.75265875  0.02437718     0.36500
C1007       C  0.81194124  0.69933649  0.96582745    -0.21000
C1008       C  0.81355915  0.69903074  0.98691689    -0.21000
C1009       C  0.72906416  0.79352356  0.97073787    -0.21000
C1010       C  0.73179649  0.79438150  0.99168307    -0.21000
C1011       C  0.75919994  0.72591968  0.91675315    -0.22000
C1012       C  0.74406530  0.74082447  0.91777333    -0.22000
C1013       C  0.77230025  0.73019732  0.04370770    -0.22000
C1014       C  0.75810237  0.74600935  0.04440223    -0.22000
C1015       C  0.78620806  0.71305715  0.94079273    -0.17400
C1016       C  0.79239046  0.71287432  0.01591411    -0.17400
C1017       C  0.74260453  0.76945666  0.01845477    -0.17400
C1018       C  0.73367384  0.76655809  0.94413055    -0.17400
H1019       H  0.82276195  0.69220293  0.95521087     0.15500
H1020       H  0.82588231  0.69164362  0.99551429     0.15500
H1021       H  0.72334261  0.80585975  0.96116113     0.15500
H1022       H  0.72850233  0.80751925  0.00138931     0.15500
H1023       H  0.76272282  0.71647519  0.90348527     0.13800
H1024       H  0.73368092  0.74516928  0.90541830     0.13800
H1025       H  0.77809995  0.72178531  0.05682497     0.13800
H1026       H  0.75079538  0.75200769  0.05815323     0.13800
H1027       H  0.77034123  0.72370771  0.97982744     0.27100
H1028       H  0.74496044  0.74747812  0.98133271     0.27100
C1029       C  0.91708575  0.80724065  0.63452450    -0.13400
C1030       C  0.91810799  0.81129494  0.65549893     0.17000
C1031       C  0.90658841  0.82771827  0.66358341     0.03300
C1032       C  0.89383635  0.83944725  0.65072658    -0.11900
C1033       C  0.89123087  0.83477566  0.62955867    -0.03000
C1034       C  0.90443833  0.81889264  0.62150184     0.02500
C1035       C  0.93271723  0.79924501  0.66825858     0.09300
N1036       N  0.90749183  0.83258637  0.68497191     0.65700
H1037       H  0.88634489  0.85252896  0.65776394     0.18600
N1038       N  0.90631241  0.81475791  0.60005805     0.76200
H1039       H  0.92684933  0.79528509  0.62798567     0.10100
C1040       C  0.93033536  0.77787812  0.67058523     0.03800
C1041       C  0.94541152  0.76662202  0.68136298    -0.04900
C1042       C  0.96251733  0.77654351  0.69064622    -0.23300
C1043       C  0.96461232  0.79804238  0.68847498     0.13100
C1044       C  0.94997260  0.80907998  0.67705099    -0.12400
N1045       N  0.91221804  0.76766735  0.66278744     0.64700
H1046       H  0.94352954  0.75015932  0.68291565     0.12600
N1047       N  0.98110834  0.80902210  0.69839454     0.61400
H1048       H  0.95205402  0.82547496  0.67509807     0.08700
O1049       O  0.89859623  0.79828227  0.59314894    -0.40100
O1050       O  0.92168338  0.82246768  0.59070609    -0.39300
O1051       O  0.91872900  0.84732338  0.69102600    -0.39300
O1052       O  0.89412515  0.82500143  0.69699148    -0.37000
O1053       O  0.99603613  0.81590220  0.68780127    -0.37900
O1054       O  0.97816049  0.81606888  0.71623361    -0.34000
O1055       O  0.91321080  0.75776376  0.64612618    -0.35400
O1056       O  0.89471495  0.77067050  0.67117653    -0.39700
C1057       C  0.83732863  0.87190313  0.65543397    -0.13400
C1058       C  0.83944446  0.89297631  0.65210238     0.17000
C1059       C  0.85351732  0.89978115  0.63705218     0.03300
C1060       C  0.86511893  0.88556270  0.62558533    -0.11900
C1061       C  0.86367123  0.86406217  0.62889977    -0.03000
C1062       C  0.84884111  0.85748024  0.64403672     0.02500
C1063       C  0.82699947  0.90753676  0.66476130     0.09300
N1064       N  0.85659978  0.92119402  0.63340230     0.65700
H1065       H  0.87464680  0.89185289  0.61349172     0.18600
N1066       N  0.84495553  0.83622007  0.64810650     0.76200
H1067       H  0.82638769  0.86652579  0.66692865     0.10100
C1068       C  0.80952466  0.91797125  0.65671821     0.03800
C1069       C  0.79815988  0.93154209  0.66923688    -0.04900
C1070       C  0.80362941  0.93459544  0.68988352    -0.23300
C1071       C  0.82080670  0.92385011  0.69803380     0.13100
C1072       C  0.83235423  0.91048543  0.68546317    -0.12400
N1073       N  0.80256964  0.91426117  0.63618792     0.64700
H1074       H  0.78486649  0.93961640  0.66288195     0.12600
N1075       N  0.82685692  0.92661023  0.71896566     0.61400
H1076       H  0.84561040  0.90239112  0.69186857     0.08700
O1077       O  0.82915051  0.82793586  0.64001170    -0.40100
O1078       O  0.85218190  0.82847378  0.66436626    -0.39300
O1079       O  0.87117345  0.93036795  0.64268850    -0.39300
O1080       O  0.84904601  0.92913531  0.61739502    -0.37000
O1081       O  0.82048663  0.91413133  0.73236216    -0.37900
O1082       O  0.84149110  0.93884306  0.72330841    -0.34000
O1083       O  0.78973272  0.89993095  0.63287136    -0.35400
O1084       O  0.80501693  0.92798462  0.62276865    -0.39700
C1085       C  0.82956107  0.83280253  0.58059822    -0.13400
C1086       C  0.82969609  0.81140211  0.58217555     0.17000
C1087       C  0.84339407  0.80213067  0.59622084     0.03300
C1088       C  0.85778452  0.81407624  0.60703846    -0.11900
C1089       C  0.85956660  0.83550731  0.60401635    -0.03000
C1090       C  0.84368319  0.84495069  0.59173165     0.02500
C1091       C  0.81739549  0.79888381  0.56744620     0.09300
N1092       N  0.84273298  0.78050815  0.59994150     0.65700
H1093       H  0.86708710  0.80614975  0.61829176     0.18600
N1094       N  0.84060560  0.86674664  0.59125663     0.76200
H1095       H  0.81870578  0.84023426  0.57026486     0.10100
C1096       C  0.79561504  0.80117672  0.56488087     0.03800
C1097       C  0.78521141  0.78965245  0.54979835    -0.04900
C1098       C  0.79617487  0.77587981  0.53716676    -0.23300
C1099       C  0.81787570  0.77370039  0.53967924     0.13100
C1100       C  0.82825955  0.78524026  0.55460788    -0.12400
N1101       N  0.78380526  0.81483387  0.57758816     0.64700
H1102       H  0.76850454  0.79144445  0.54789851     0.12600
N1103       N  0.82958817  0.75978240  0.52719868     0.61400
H1104       H  0.84505045  0.78376975  0.55594594     0.08700
O1105       O  0.82604129  0.87432516  0.60191761    -0.40100
O1106       O  0.84764601  0.87707770  0.57644446    -0.39300
O1107       O  0.85694400  0.76919249  0.59268662    -0.39300
O1108       O  0.83149281  0.77380323  0.61435509    -0.37000
O1109       O  0.83311182  0.74188685  0.53371024    -0.37900
O1110       O  0.84032209  0.76670172  0.51251558    -0.34000
O1111       O  0.77763431  0.83171029  0.57029486    -0.35400
O1112       O  0.77531449  0.80798848  0.59365784    -0.39700
C1113       C  0.84992085  0.07524674  0.64246524    -0.13400
C1114       C  0.83406679  0.08437866  0.65397582     0.17000
C1115       C  0.83270902  0.10585899  0.65447388     0.03300
C1116       C  0.84656518  0.11766344  0.64284222    -0.11900
C1117       C  0.86285136  0.10887360  0.63081433    -0.03000
C1118       C  0.86426225  0.08682623  0.63109264     0.02500
C1119       C  0.82003030  0.07091835  0.66611119     0.09300
N1120       N  0.81728048  0.11603738  0.66663322     0.65700
H1121       H  0.84481270  0.13420176  0.64354733     0.18600
N1122       N  0.88018929  0.07527653  0.62100584     0.76200
H1123       H  0.85152076  0.05866606  0.64263360     0.10100
C1124       C  0.80810477  0.05541036  0.65647108     0.03800
C1125       C  0.79757027  0.04083409  0.66833304    -0.04900
C1126       C  0.79873331  0.04128128  0.68981507    -0.23300
C1127       C  0.81008195  0.05716628  0.69953333     0.13100
C1128       C  0.82061254  0.07181337  0.68764284    -0.12400
N1129       N  0.80673148  0.05414394  0.63460091     0.64700
H1130       H  0.78864060  0.02888563  0.66073164     0.12600
N1131       N  0.81190245  0.05802581  0.72139023     0.61400
H1132       H  0.83006999  0.08334674  0.69525260     0.08700
O1133       O  0.89404121  0.06696593  0.63199150    -0.40100
O1134       O  0.87629926  0.06747638  0.60366769    -0.39300
O1135       O  0.82255827  0.12403374  0.68353575    -0.39300
O1136       O  0.80032964  0.12139198  0.65837741    -0.37000
O1137       O  0.82699647  0.04908880  0.73001957    -0.37900
O1138       O  0.80150928  0.07119146  0.73132076    -0.34000
O1139       O  0.81688377  0.04044409  0.62516438    -0.35400
O1140       O  0.79216001  0.06340654  0.62546638    -0.39700
C1141       C  0.13481347  0.80313352  0.65515738    -0.13400
C1142       C  0.11322548  0.80580228  0.65442888     0.17000
C1143       C  0.10463672  0.81994280  0.64069601     0.03300
C1144       C  0.11767137  0.83180861  0.62846162    -0.11900
C1145       C  0.13970164  0.83110090  0.63032466    -0.03000
C1146       C  0.14809947  0.81527880  0.64315441     0.02500
C1147       C  0.09963494  0.79444579  0.66858833     0.09300
N1148       N  0.08253498  0.82237597  0.63890347     0.65700
H1149       H  0.10995573  0.84123626  0.61721889     0.18600
N1150       N  0.16996650  0.81084811  0.64391442     0.76200
H1151       H  0.14143779  0.79171459  0.66533008     0.10100
C1152       C  0.09565493  0.77334037  0.66598314     0.03800
C1153       C  0.08098798  0.76366541  0.67855804    -0.04900
C1154       C  0.07042462  0.77479688  0.69379455    -0.23300
C1155       C  0.07523799  0.79562448  0.69710489     0.13100
C1156       C  0.08969476  0.80534037  0.68438872    -0.12400
N1157       N  0.10579648  0.76177870  0.65020071     0.64700
H1158       H  0.07744980  0.74755659  0.67615581     0.12600
N1159       N  0.06564308  0.80700906  0.71334777     0.61400
H1160       H  0.09302707  0.82151411  0.68667175     0.08700
O1161       O  0.18051271  0.81706447  0.65907271    -0.40100
O1162       O  0.17676741  0.79582512  0.63359609    -0.39300
O1163       O  0.07371810  0.83731103  0.64774852    -0.39300
O1164       O  0.07276761  0.81243166  0.62529909    -0.37000
O1165       O  0.07458102  0.80802209  0.73059199    -0.37900
O1166       O  0.05113072  0.81943626  0.70925856    -0.34000
O1167       O  0.12089231  0.75022978  0.65479678    -0.35400
O1168       O  0.09711008  0.75983336  0.63291388    -0.39700
C1169       C  0.82240790  0.82450045  0.37274592    -0.13400
C1170       C  0.83260711  0.81219272  0.38724714     0.17000
C1171       C  0.85462172  0.81267106  0.38768776     0.03300
C1172       C  0.86549537  0.82645531  0.37523343    -0.11900
C1173       C  0.85536066  0.84099030  0.36260296    -0.03000
C1174       C  0.83311612  0.83871733  0.36042049     0.02500
C1175       C  0.82000804  0.79888038  0.40138219     0.09300
N1176       N  0.86642749  0.79978718  0.40111581     0.65700
H1177       H  0.88235102  0.82665522  0.37652180     0.18600
N1178       N  0.82077785  0.84930099  0.34536067     0.76200
H1179       H  0.80574777  0.82280214  0.37057960     0.10100
C1180       C  0.80191934  0.80639594  0.41148614     0.03800
C1181       C  0.79086989  0.79377843  0.42507571    -0.04900
C1182       C  0.79787404  0.77395248  0.42975150    -0.23300
C1183       C  0.81552296  0.76617093  0.41936895     0.13100
C1184       C  0.82599265  0.77839648  0.40495501    -0.12400
N1185       N  0.79502763  0.82711712  0.40895413     0.64700
H1186       H  0.77722443  0.79986588  0.43283510     0.12600
N1187       N  0.82338673  0.74610730  0.42368242     0.61400
H1188       H  0.83902737  0.77178550  0.39670016     0.08700
O1189       O  0.80593855  0.86048850  0.35148309    -0.40100
O1190       O  0.81932889  0.84178389  0.32756411    -0.39300
O1191       O  0.87791027  0.78594401  0.39354357    -0.39300
O1192       O  0.86892757  0.80501516  0.41962855    -0.37000
O1193       O  0.83833302  0.74420577  0.43614672    -0.37900
O1194       O  0.81927051  0.73152388  0.41152999    -0.34000
O1195       O  0.77835175  0.83062230  0.39925889    -0.35400
O1196       O  0.80284513  0.84109557  0.41999709    -0.39700
C1197       C  0.12555047  0.10534098  0.57212965    -0.13400
C1198       C  0.11445937  0.08932806  0.58125929     0.17000
C1199       C  0.11594262  0.08644617  0.60250477     0.03300
C1200       C  0.12720928  0.10038194  0.61443594    -0.11900
C1201       C  0.13765378  0.11757340  0.60586546    -0.03000
C1202       C  0.13766325  0.11903555  0.58385340     0.02500
C1203       C  0.10245122  0.07495553  0.56823488     0.09300
N1204       N  0.10662900  0.06904792  0.61220848     0.65700
H1205       H  0.12724557  0.09799204  0.63088478     0.18600
N1206       N  0.15099185  0.13260262  0.57263583     0.76200
H1207       H  0.12541864  0.10676402  0.55554265     0.10100
C1208       C  0.08051364  0.07577625  0.56734146     0.03800
C1209       C  0.06956281  0.06128090  0.55563640    -0.04900
C1210       C  0.08016855  0.04623713  0.54421994    -0.23300
C1211       C  0.10223651  0.04584591  0.54464132     0.13100
C1212       C  0.11314069  0.06010285  0.55672362    -0.12400
N1213       N  0.06921284  0.09174824  0.57753423     0.64700
H1214       H  0.05266726  0.06203986  0.55516677     0.12600
N1215       N  0.11379419  0.03051347  0.53376034     0.61400
H1216       H  0.13003626  0.05942414  0.55734153     0.08700
O1217       O  0.14284285  0.14530749  0.56044057    -0.40100
O1218       O  0.16969610  0.12734218  0.56961043    -0.39300
O1219       O  0.11770421  0.05340742  0.61563660    -0.39300
O1220       O  0.08964110  0.07120612  0.62177193    -0.37000
O1221       O  0.12204962  0.03497475  0.51675073    -0.37900
O1222       O  0.11977917  0.01464689  0.54315253    -0.34000
O1223       O  0.06493532  0.10796153  0.56784308    -0.35400
O1224       O  0.05950755  0.08780897  0.59391227    -0.39700
C1225       C  0.10294312  0.09502307  0.37512687    -0.13400
C1226       C  0.10683625  0.09790650  0.39596905     0.17000
C1227       C  0.12284577  0.11134248  0.40190239     0.03300
C1228       C  0.13547466  0.12048463  0.38697448    -0.11900
C1229       C  0.13331861  0.11606722  0.36567362    -0.03000
C1230       C  0.11503644  0.10461043  0.36007874     0.02500
C1231       C  0.09554732  0.08487177  0.41086758     0.09300
N1232       N  0.12631090  0.11618823  0.42305684     0.65700
H1233       H  0.14672809  0.13143034  0.39262437     0.18600
N1234       N  0.10697004  0.10376002  0.33965764     0.76200
H1235       H  0.09024928  0.08511929  0.37032317     0.10100
C1236       C  0.07354629  0.08344327  0.41096349     0.03800
C1237       C  0.06379799  0.06759662  0.42175722    -0.04900
C1238       C  0.07554440  0.05302395  0.43252501    -0.23300
C1239       C  0.09749615  0.05492605  0.43311128     0.13100
C1240       C  0.10722917  0.07083521  0.42239478    -0.12400
N1241       N  0.06087697  0.09764386  0.39983750     0.64700
H1242       H  0.04691780  0.06650179  0.42141840     0.12600
N1243       N  0.11028980  0.03968880  0.44259836     0.61400
H1244       H  0.12413039  0.07125313  0.42181199     0.08700
O1245       O  0.10565439  0.08645292  0.33098234    -0.40100
O1246       O  0.09372718  0.11722580  0.33473790    -0.39300
O1247       O  0.14147231  0.10805979  0.43234941    -0.39300
O1248       O  0.11772186  0.13190197  0.43067581    -0.37000
O1249       O  0.11583101  0.02417126  0.43228651    -0.37900
O1250       O  0.11988380  0.04402984  0.45896978    -0.34000
O1251       O  0.05188898  0.09173166  0.38361338    -0.35400
O1252       O  0.05426247  0.11351680  0.40890213    -0.39700
C1253       C  0.90776953  0.87020778  0.56785384    -0.13400
C1254       C  0.92181141  0.88324359  0.57794256     0.17000
C1255       C  0.92207247  0.88349971  0.59948113     0.03300
C1256       C  0.90785743  0.87151525  0.61043340    -0.11900
C1257       C  0.89231132  0.85936356  0.60070646    -0.03000
C1258       C  0.89341136  0.85793536  0.57865490     0.02500
C1259       C  0.93431750  0.89802093  0.56569368     0.09300
N1260       N  0.93554946  0.89704174  0.61059531     0.65700
H1261       H  0.90819836  0.87269028  0.62703226     0.18600
N1262       N  0.88142812  0.84370909  0.56657558     0.76200
H1263       H  0.90796371  0.86954680  0.55121340     0.10100
C1264       C  0.95620737  0.89661690  0.56372693     0.03800
C1265       C  0.96716719  0.91167293  0.55268057    -0.04900
C1266       C  0.95661587  0.92777276  0.54280385    -0.23300
C1267       C  0.93461977  0.92868548  0.54422845     0.13100
C1268       C  0.92378196  0.91401139  0.55575676    -0.12400
N1269       N  0.96737232  0.87940721  0.57170841     0.64700
H1270       H  0.98398294  0.91044233  0.55133134     0.12600
N1271       N  0.92304298  0.94485861  0.53480435     0.61400
H1272       H  0.90695760  0.91520834  0.55711359     0.08700
O1273       O  0.88896157  0.82615994  0.56309406    -0.40100
O1274       O  0.86881628  0.85078741  0.55351714    -0.39300
O1275       O  0.92893689  0.91464011  0.61551006    -0.39300
O1276       O  0.95095407  0.88966186  0.62012120    -0.37000
O1277       O  0.91339398  0.94131517  0.51827368    -0.37900
O1278       O  0.91832731  0.96052792  0.54527688    -0.34000
O1279       O  0.96957950  0.86366657  0.56055444    -0.35400
O1280       O  0.97931491  0.88190097  0.58691509    -0.39700
C1281       C  0.90725293  0.10160568  0.57080181    -0.13400
C1282       C  0.92264140  0.09043610  0.58102758     0.17000
C1283       C  0.92488084  0.09291252  0.60228642     0.03300
C1284       C  0.91009816  0.10426992  0.61321265    -0.11900
C1285       C  0.89278127  0.11380036  0.60354306    -0.03000
C1286       C  0.89308070  0.11409773  0.58144200     0.02500
C1287       C  0.93614802  0.07644060  0.56903303     0.09300
N1288       N  0.94172863  0.08355574  0.61316940     0.65700
H1289       H  0.91170510  0.10481284  0.62976973     0.18600
N1290       N  0.88090289  0.12785483  0.56914850     0.76200
H1291       H  0.90674067  0.10119334  0.55415874     0.10100
C1292       C  0.92728440  0.06039092  0.55738083     0.03800
C1293       C  0.94000668  0.04800982  0.54519251    -0.04900
C1294       C  0.96166150  0.05096703  0.54462008    -0.23300
C1295       C  0.97065360  0.06690996  0.55635641     0.13100
C1296       C  0.95781195  0.07961966  0.56835902    -0.12400
N1297       N  0.90544721  0.05598621  0.55834683     0.64700
H1298       H  0.93289925  0.03558621  0.53654726     0.12600
N1299       N  0.99251712  0.07109937  0.55539358     0.61400
H1300       H  0.96471563  0.09225604  0.57682882     0.08700
O1301       O  0.86932310  0.12050029  0.55526484    -0.40100
O1302       O  0.88703996  0.14614077  0.56719946    -0.39300
O1303       O  0.95693682  0.09449216  0.61887435    -0.39300
O1304       O  0.93935278  0.06592695  0.62080240    -0.37000
O1305       O  0.99923703  0.08360259  0.54218091    -0.37900
O1306       O  0.00401527  0.06629784  0.57035718    -0.34000
O1307       O  0.89386004  0.06080854  0.54345355    -0.35400
O1308       O  0.89887338  0.04333723  0.57148616    -0.39700
C1309       C  0.11114083  0.91294206  0.55276704    -0.13400
C1310       C  0.10138135  0.89987043  0.56684998     0.17000
C1311       C  0.07947406  0.90068198  0.56907279     0.03300
C1312       C  0.06783832  0.91430830  0.55707965    -0.11900
C1313       C  0.07760285  0.92689178  0.54251844    -0.03000
C1314       C  0.09952728  0.92605019  0.54034191     0.02500
C1315       C  0.11456394  0.88615299  0.57946101     0.09300
N1316       N  0.06874298  0.88743109  0.58298406     0.65700
H1317       H  0.05103015  0.91477889  0.55892773     0.18600
N1318       N  0.11041401  0.93878549  0.52606937     0.76200
H1319       H  0.12799672  0.91315440  0.55151037     0.10100
C1320       C  0.12956704  0.87323621  0.57038903     0.03800
C1321       C  0.14259812  0.86137562  0.58268389    -0.04900
C1322       C  0.14067274  0.86102802  0.60431490    -0.23300
C1323       C  0.12673576  0.87573630  0.61333031     0.13100
C1324       C  0.11371097  0.88763069  0.60085899    -0.12400
N1325       N  0.13177910  0.87181045  0.54857598     0.64700
H1326       H  0.15440068  0.85257587  0.57477406     0.12600
N1327       N  0.12545912  0.87897191  0.63506674     0.61400
H1328       H  0.10321295  0.89856730  0.60801487     0.08700
O1329       O  0.11622460  0.93126240  0.50911863    -0.40100
O1330       O  0.11833188  0.95545666  0.53220914    -0.39300
O1331       O  0.06162824  0.89471494  0.59955240    -0.39300
O1332       O  0.06199850  0.87037687  0.57655132    -0.37000
O1333       O  0.13609785  0.89331849  0.64287548    -0.37900
O1334       O  0.10937853  0.87298476  0.64451702    -0.34000
O1335       O  0.14770161  0.87943996  0.54010238    -0.35400
O1336       O  0.12082269  0.85901490  0.53876343    -0.39700
C1337       C  0.10061136  0.90716894  0.41170659    -0.13400
C1338       C  0.08821389  0.89684121  0.39721024     0.17000
C1339       C  0.06648950  0.90029575  0.39706430     0.03300
C1340       C  0.05787456  0.91471126  0.41061870    -0.11900
C1341       C  0.07037526  0.92533726  0.42485619    -0.03000
C1342       C  0.09193370  0.92102692  0.42568250     0.02500
C1343       C  0.09897298  0.88241609  0.38313938     0.09300
N1344       N  0.05279808  0.88870154  0.38415630     0.65700
H1345       H  0.04118398  0.91740644  0.41015865     0.18600
N1346       N  0.10542590  0.93087675  0.44014154     0.76200
H1347       H  0.11731510  0.90449105  0.41212698     0.10100
C1348       C  0.09964832  0.88517831  0.36176486     0.03800
C1349       C  0.11440611  0.87435057  0.35014811    -0.04900
C1350       C  0.12960654  0.86149514  0.35925960    -0.23300
C1351       C  0.12597355  0.85609119  0.38038947     0.13100
C1352       C  0.11131266  0.86711618  0.39189321    -0.12400
N1353       N  0.08655722  0.89979275  0.35166679     0.64700
H1354       H  0.11499965  0.87730233  0.33387013     0.12600
N1355       N  0.13513928  0.83871657  0.39047074     0.61400
H1356       H  0.10967666  0.86381639  0.40813348     0.08700
O1357       O  0.11644091  0.94584636  0.43435291    -0.40100
O1358       O  0.11036856  0.92146724  0.45634354    -0.39300
O1359       O  0.04582857  0.87180651  0.39067384    -0.39300
O1360       O  0.04300268  0.89783139  0.37006832    -0.37000
O1361       O  0.12554088  0.82181459  0.38967742    -0.37900
O1362       O  0.14646402  0.84196641  0.40600045    -0.34000
O1363       O  0.09053666  0.91871198  0.35326275    -0.35400
O1364       O  0.07420123  0.89373045  0.33781667    -0.39700
C1365       C  0.89600166  0.88594447  0.39803524    -0.13400
C1366       C  0.90959671  0.89906471  0.38758658     0.17000
C1367       C  0.90987552  0.89837156  0.36601902     0.03300
C1368       C  0.89694754  0.88459499  0.35550528    -0.11900
C1369       C  0.88320154  0.87081420  0.36565633    -0.03000
C1370       C  0.88261994  0.87226133  0.38771088     0.02500
C1371       C  0.92423026  0.91225313  0.39963610     0.09300
N1372       N  0.92301469  0.91174121  0.35439452     0.65700
H1373       H  0.89792465  0.88443236  0.33889340     0.18600
N1374       N  0.86849033  0.86100152  0.40042867     0.76200
H1375       H  0.89580091  0.88618497  0.41467089     0.10100
C1376       C  0.91709877  0.92555149  0.41533686     0.03800
C1377       C  0.93145584  0.93609879  0.42767708    -0.04900
C1378       C  0.95305676  0.93401395  0.42469672    -0.23300
C1379       C  0.96024158  0.92086277  0.40889718     0.13100
C1380       C  0.94584633  0.91008032  0.39667714    -0.12400
N1381       N  0.89532332  0.92892432  0.41874412     0.64700
H1382       H  0.92554653  0.94634392  0.43947255     0.12600
N1383       N  0.98201894  0.91731354  0.40576654     0.61400
H1384       H  0.95165311  0.89938552  0.38525226     0.08700
O1385       O  0.85093018  0.86874396  0.40450300    -0.40100
O1386       O  0.87611388  0.84848476  0.41313699    -0.39300
O1387       O  0.93949755  0.90466953  0.34645410    -0.39300
O1388       O  0.91558919  0.92837137  0.34769785    -0.37000
O1389       O  0.99059225  0.90226307  0.41454372    -0.37900
O1390       O  0.99105417  0.92561728  0.39070453    -0.34000
O1391       O  0.88666621  0.92072544  0.43407985    -0.35400
O1392       O  0.88660336  0.94405431  0.41025127    -0.39700
C1393       C  0.92748828  0.10439376  0.37787830    -0.13400
C1394       C  0.91854557  0.09162880  0.39273262     0.17000
C1395       C  0.89694853  0.09313862  0.39632827     0.03300
C1396       C  0.88473832  0.10618086  0.38431829    -0.11900
C1397       C  0.89316830  0.11833481  0.36831158    -0.03000
C1398       C  0.91543937  0.11798748  0.36604688     0.02500
C1399       C  0.93219174  0.07779092  0.40506803     0.09300
N1400       N  0.88686805  0.08109537  0.41173661     0.65700
H1401       H  0.86806738  0.10612139  0.38706789     0.18600
N1402       N  0.92672400  0.13179352  0.35312123     0.76200
H1403       H  0.94428758  0.10442063  0.37594875     0.10100
C1404       C  0.94638763  0.06403677  0.39567990     0.03800
C1405       C  0.95929747  0.05165652  0.40782247    -0.04900
C1406       C  0.95810608  0.05221470  0.42934585    -0.23300
C1407       C  0.94404664  0.06605589  0.43874454     0.13100
C1408       C  0.93159121  0.07888729  0.42660416    -0.12400
N1409       N  0.94737058  0.06183478  0.37384837     0.64700
H1410       H  0.96978393  0.04096663  0.40028005     0.12600
N1411       N  0.94258260  0.06775126  0.46057861     0.61400
H1412       H  0.92153016  0.08994798  0.43412909     0.08700
O1413       O  0.93749732  0.12436188  0.33867723    -0.40100
O1414       O  0.93207157  0.14897276  0.36041771    -0.39300
O1415       O  0.88120420  0.08966303  0.42823842    -0.39300
O1416       O  0.87888620  0.06406850  0.40679754    -0.37000
O1417       O  0.95289789  0.08153041  0.46971625    -0.37900
O1418       O  0.92753339  0.05927666  0.46975095    -0.34000
O1419       O  0.96303547  0.06867551  0.36431042    -0.35400
O1420       O  0.93553260  0.04904991  0.36506316    -0.39700
C1421       C  0.18830908  0.83466149  0.38442259    -0.13400
C1422       C  0.19080457  0.81377584  0.38010044     0.17000
C1423       C  0.18020694  0.80553349  0.36295573     0.03300
C1424       C  0.16667680  0.81795332  0.35147576    -0.11900
C1425       C  0.16286073  0.83879506  0.35666692    -0.03000
C1426       C  0.17575892  0.84732485  0.37236422     0.02500
C1427       C  0.20389566  0.80113861  0.39423759     0.09300
N1428       N  0.18341949  0.78477983  0.35645641     0.65700
H1429       H  0.15968864  0.81101930  0.33805156     0.18600
N1430       N  0.17665690  0.86883430  0.37652503     0.76200
H1431       H  0.19596089  0.84143780  0.39760042     0.10100
C1432       C  0.22326761  0.80849017  0.40188873     0.03800
C1433       C  0.23373604  0.79772022  0.41726285    -0.04900
C1434       C  0.22600598  0.77907141  0.42451869    -0.23300
C1435       C  0.20715472  0.77126035  0.41667021     0.13100
C1436       C  0.19598984  0.78252483  0.40201337    -0.12400
N1437       N  0.23298118  0.82650400  0.39380484     0.64700
H1438       H  0.24843590  0.80357368  0.42309149     0.12600
N1439       N  0.19925882  0.75192711  0.42355364     0.61400
H1440       H  0.18094896  0.77684671  0.39701315     0.08700
O1441       O  0.19135014  0.87894226  0.36850869    -0.40100
O1442       O  0.16876356  0.87547029  0.39302242    -0.39300
O1443       O  0.16891581  0.77188125  0.35882762    -0.39300
O1444       O  0.19769533  0.78097072  0.34364553    -0.37000
O1445       O  0.20766622  0.73549158  0.41740127    -0.37900
O1446       O  0.18623363  0.75136093  0.43807889    -0.34000
O1447       O  0.23479248  0.84217409  0.40513783    -0.35400
O1448       O  0.24451628  0.82482755  0.37818317    -0.39700
C1449       C  0.21979998  0.80272105  0.55162607    -0.13400
C1450       C  0.20453065  0.79240707  0.56313368     0.17000
C1451       C  0.20052784  0.77145129  0.55862987     0.03300
C1452       C  0.21170950  0.76147218  0.54294126    -0.11900
C1453       C  0.22708011  0.77186736  0.53169397    -0.03000
C1454       C  0.23117992  0.79264239  0.53626684     0.02500
C1455       C  0.19201798  0.80440049  0.57840843     0.09300
N1456       N  0.18542773  0.75996146  0.56996743     0.65700
H1457       H  0.20841404  0.74549655  0.53951777     0.18600
N1458       N  0.24683994  0.80377461  0.52535521     0.76200
H1459       H  0.22262428  0.81892025  0.55420533     0.10100
C1460       C  0.20150240  0.81746921  0.59299974     0.03800
C1461       C  0.18930747  0.83044394  0.60532304    -0.04900
C1462       C  0.16731459  0.83102579  0.60376426    -0.23300
C1463       C  0.15786245  0.81650706  0.58998659     0.13100
C1464       C  0.17022815  0.80410863  0.57724379    -0.12400
N1465       N  0.22358223  0.81730720  0.59607918     0.64700
H1466       H  0.19746229  0.83956587  0.61662999     0.12600
N1467       N  0.13570541  0.81383837  0.58864993     0.61400
H1468       H  0.16256324  0.79437794  0.56603948     0.08700
O1469       O  0.24159884  0.81485543  0.51035464    -0.40100
O1470       O  0.26450784  0.80635801  0.53352060    -0.39300
O1471       O  0.16865110  0.75461129  0.56130902    -0.39300
O1472       O  0.19095008  0.75104077  0.58625773    -0.37000
O1473       O  0.12611391  0.82111342  0.57338985    -0.37900
O1474       O  0.12755239  0.79898121  0.59813071    -0.34000
O1475       O  0.23423227  0.83265944  0.59062755    -0.35400
O1476       O  0.23132018  0.80468603  0.60861289    -0.39700
C1477       C  0.80620019  0.18729777  0.40780052    -0.13400
C1478       C  0.82611210  0.18107123  0.41470014     0.17000
C1479       C  0.83284516  0.18842125  0.43412785     0.03300
C1480       C  0.81993344  0.20132869  0.44581768    -0.11900
C1481       C  0.79947959  0.20605837  0.43967027    -0.03000
C1482       C  0.79260693  0.19881974  0.42033337     0.02500
C1483       C  0.83934352  0.16713167  0.40138558     0.09300
N1484       N  0.85193813  0.18167360  0.44320215     0.65700
H1485       H  0.82551906  0.20667154  0.46061869     0.18600
N1486       N  0.77149896  0.20164933  0.41378037     0.76200
H1487       H  0.80076845  0.18265481  0.39275758     0.10100
C1488       C  0.83057289  0.15057138  0.39028362     0.03800
C1489       C  0.84265959  0.13945994  0.37613895    -0.04900
C1490       C  0.86413786  0.14358591  0.37270588    -0.23300
C1491       C  0.87349000  0.15765749  0.38686741     0.13100
C1492       C  0.86099350  0.17021662  0.39952745    -0.12400
N1493       N  0.80971834  0.14374973  0.39413725     0.64700
H1494       H  0.83495136  0.12669493  0.36873291     0.12600
N1495       N  0.89563702  0.15886352  0.38941816     0.61400
H1496       H  0.86857268  0.18233407  0.40808856     0.08700
O1497       O  0.75768272  0.18930543  0.41994221    -0.40100
O1498       O  0.76774190  0.21276664  0.39837443    -0.39300
O1499       O  0.86658062  0.19441176  0.44569491    -0.39300
O1500       O  0.85192393  0.16535725  0.45360478    -0.37000
O1501       O  0.90528524  0.17432397  0.38267430    -0.37900
O1502       O  0.90389453  0.14855721  0.40365672    -0.34000
O1503       O  0.79630292  0.14474185  0.37998059    -0.35400
O1504       O  0.80629989  0.13227230  0.40935154    -0.39700
C1505       C  0.79680511  0.17421003  0.56991054    -0.13400
C1506       C  0.81866442  0.17638252  0.57038229     0.17000
C1507       C  0.82819991  0.19101895  0.55739400     0.03300
C1508       C  0.81593255  0.20323510  0.54457556    -0.11900
C1509       C  0.79426389  0.20093033  0.54401253    -0.03000
C1510       C  0.78459149  0.18635474  0.55676371     0.06900
C1511       C  0.83146803  0.16316007  0.58409076     0.09300
N1512       N  0.85039365  0.19272072  0.55592080     0.65700
H1513       H  0.82342590  0.21420852  0.53448334     0.18600
N1514       N  0.76249465  0.18346631  0.55605261     0.76200
H1515       H  0.78926167  0.16298220  0.57966279     0.10100
C1516       C  0.84467519  0.17174401  0.59901834     0.03800
C1517       C  0.85873362  0.15929064  0.60960915    -0.04900
C1518       C  0.86020846  0.13786095  0.60605553    -0.23300
C1519       C  0.84410548  0.12901131  0.59353713     0.13100
C1520       C  0.83063271  0.14174150  0.58220714    -0.12400
N1521       N  0.84272179  0.19281046  0.60500710     0.64700
H1522       H  0.86776278  0.16683334  0.62138030     0.12600
N1523       N  0.84000284  0.10735201  0.59330790     0.61400
H1524       H  0.81940842  0.13479010  0.57185341     0.08700
O1525       O  0.75088676  0.19371970  0.56791748    -0.40100
O1526       O  0.75447929  0.17352693  0.54136868    -0.39300
O1527       O  0.86020573  0.17991451  0.54500028    -0.39300
O1528       O  0.85902423  0.20957395  0.56039957    -0.37000
O1529       O  0.82304077  0.10073840  0.60060614    -0.37900
O1530       O  0.85160550  0.09521026  0.58343348    -0.34000
O1531       O  0.82777853  0.19791260  0.61658044    -0.35400
O1532       O  0.85838048  0.20449545  0.60375913    -0.39700
C1533       C  0.83749447  0.93141996  0.28881405    -0.13400
C1534       C  0.82560855  0.91757811  0.30047245     0.17000
C1535       C  0.80370514  0.92006225  0.30132382     0.03300
C1536       C  0.79414425  0.93568028  0.29005005    -0.11900
C1537       C  0.80600570  0.94890524  0.27779972    -0.03000
C1538       C  0.82786642  0.94687083  0.27734267     0.02500
C1539       C  0.83640927  0.90158557  0.31270302     0.09300
N1540       N  0.79089142  0.90655646  0.31313447     0.65700
H1541       H  0.77730545  0.93725649  0.29049556     0.18600
N1542       N  0.84040834  0.96003523  0.26490668     0.76200
H1543       H  0.85435686  0.93031982  0.28868151     0.10100
C1544       C  0.85112782  0.88810726  0.30397952     0.03800
C1545       C  0.86175557  0.87404541  0.31637468    -0.04900
C1546       C  0.85762400  0.87215474  0.33761824    -0.23300
C1547       C  0.84403135  0.88735662  0.34642723     0.13100
C1548       C  0.83338735  0.90123757  0.33388857    -0.12400
N1549       N  0.85560919  0.88849732  0.28248415     0.64700
H1550       H  0.87380410  0.86510925  0.30902252     0.12600
N1551       N  0.84209766  0.89053835  0.36808912     0.61400
H1552       H  0.82337101  0.91262779  0.34102090     0.08700
O1553       O  0.84964779  0.97510374  0.27307236    -0.40100
O1554       O  0.84578466  0.95413448  0.24720093    -0.39300
O1555       O  0.78233944  0.91313865  0.32933475    -0.39300
O1556       O  0.78441901  0.89008671  0.30510293    -0.37000
O1557       O  0.82514712  0.88580582  0.37672476    -0.37900
O1558       O  0.85290637  0.90465704  0.37610880    -0.34000
O1559       O  0.87272942  0.89588035  0.27638318    -0.35400
O1560       O  0.84501780  0.87742168  0.27044384    -0.39700
C1561       C  0.80129151  0.08044183  0.30519304    -0.13400
C1562       C  0.82188640  0.08529184  0.29984036     0.17000
C1563       C  0.83090681  0.07602376  0.28234499     0.03300
C1564       C  0.81967227  0.06133254  0.27118800    -0.11900
C1565       C  0.79945604  0.05571909  0.27712589    -0.03000
C1566       C  0.79001330  0.06576194  0.29395560     0.02500
C1567       C  0.83493514  0.09685698  0.31459613     0.09300
N1568       N  0.85166147  0.08102520  0.27605082     0.65700
H1569       H  0.82691086  0.05392725  0.25806159     0.18600
N1570       N  0.76940111  0.06052273  0.30039207     0.76200
H1571       H  0.79434388  0.08727477  0.31877117     0.10100
C1572       C  0.83283761  0.11803584  0.31786733     0.03800
C1573       C  0.84645460  0.12811264  0.33131516    -0.04900
C1574       C  0.86202512  0.11753553  0.34267403    -0.23300
C1575       C  0.86337225  0.09568056  0.33954185     0.13100
C1576       C  0.84984173  0.08596576  0.32571883    -0.12400
N1577       N  0.81722614  0.12965374  0.30742434     0.64700
H1578       H  0.84490186  0.14461826  0.33294082     0.12600
N1579       N  0.87883528  0.08279617  0.34872317     0.61400
H1580       H  0.85134742  0.06954620  0.32325394     0.08700
O1581       O  0.75438197  0.07203674  0.29548742    -0.40100
O1582       O  0.76699346  0.04763979  0.31463207    -0.39300
O1583       O  0.86639312  0.06879639  0.27999404    -0.39300
O1584       O  0.85442713  0.09503670  0.26298530    -0.37000
O1585       O  0.87289519  0.06901815  0.36099887    -0.37900
O1586       O  0.89617143  0.08051919  0.33982586    -0.34000
O1587       O  0.80006993  0.13309771  0.31631508    -0.35400
O1588       O  0.82240312  0.14054754  0.29226272    -0.39700
C1589       C  0.09230090  0.77852787  0.29567928    -0.13400
C1590       C  0.09019790  0.79999400  0.29440982     0.17000
C1591       C  0.07399830  0.80816509  0.28216098     0.03300
C1592       C  0.05984389  0.79495785  0.27245167    -0.11900
C1593       C  0.06133728  0.77360173  0.27466100    -0.03000
C1594       C  0.07795346  0.76533358  0.28617114     0.02500
C1595       C  0.10463938  0.81336956  0.30647123     0.09300
N1596       N  0.07120968  0.82980377  0.27986147     0.65700
H1597       H  0.04726709  0.80144638  0.26341974     0.18600
N1598       N  0.08010934  0.74366524  0.28891527     0.76200
H1599       H  0.10502652  0.77192016  0.30437968     0.10100
C1600       C  0.10777503  0.81012369  0.32755525     0.03800
C1601       C  0.12165405  0.82247541  0.33840128    -0.04900
C1602       C  0.13300045  0.83874437  0.32942844    -0.23300
C1603       C  0.12897809  0.84252523  0.30808650     0.13100
C1604       C  0.11555038  0.82941893  0.29697263    -0.12400
N1605       N  0.09645423  0.79475791  0.33857775     0.64700
H1606       H  0.12359800  0.81914011  0.35435021     0.12600
N1607       N  0.13679102  0.86006708  0.29738105     0.61400
H1608       H  0.11337167  0.83213270  0.28072191     0.08700
O1609       O  0.07227655  0.73537442  0.30461845    -0.40100
O1610       O  0.09379499  0.73406013  0.27877843    -0.39300
O1611       O  0.07697867  0.83823393  0.26338014    -0.39300
O1612       O  0.05831335  0.83900112  0.29128979    -0.37000
O1613       O  0.14948543  0.85725944  0.28281292    -0.37900
O1614       O  0.12616918  0.87638688  0.29757877    -0.34000
O1615       O  0.10589591  0.77881847  0.34447463    -0.35400
O1616       O  0.07938874  0.79954972  0.34700163    -0.39700
C1617       C  0.93891784  0.81022681  0.28846429    -0.13400
C1618       C  0.92810621  0.80145564  0.30498635     0.17000
C1619       C  0.93013579  0.78017568  0.30855890     0.03300
C1620       C  0.94281636  0.76810399  0.29566406    -0.11900
C1621       C  0.95372493  0.77691856  0.27920455    -0.03000
C1622       C  0.95171502  0.79820457  0.27568468     0.02500
C1623       C  0.91368830  0.81457064  0.31728663     0.09300
N1624       N  0.91986370  0.77070902  0.32553425     0.65700
H1625       H  0.94456179  0.75185774  0.29879141     0.18600
N1626       N  0.96262130  0.80782458  0.25918138     0.76200
H1627       H  0.93732572  0.82650757  0.28541931     0.10100
C1628       C  0.92069607  0.82693668  0.33354003     0.03800
C1629       C  0.90677813  0.84009375  0.34382840    -0.04900
C1630       C  0.88533631  0.84191678  0.33824712    -0.23300
C1631       C  0.87846481  0.82812019  0.32237398     0.13100
C1632       C  0.89263449  0.81524617  0.31201971    -0.12400
N1633       N  0.94189488  0.82593274  0.34023344     0.64700
H1634       H  0.91313275  0.84822486  0.35687335     0.12600
N1635       N  0.85709979  0.82610652  0.31665169     0.61400
H1636       H  0.88698908  0.80542505  0.29973591     0.08700
O1637       O  0.97950116  0.81715295  0.26276853    -0.40100
O1638       O  0.95339099  0.81064674  0.24230784    -0.39300
O1639       O  0.90356602  0.76027164  0.32244186    -0.39300
O1640       O  0.92946583  0.76889741  0.34235040    -0.37000
O1641       O  0.85136763  0.83361942  0.29970726    -0.37900
O1642       O  0.84722321  0.81081673  0.32350608    -0.34000
O1643       O  0.95447783  0.83985526  0.33495349    -0.35400
O1644       O  0.94669249  0.81407372  0.35477669    -0.39700
C1645       C  0.72644541  0.07345789  0.16663911    -0.13400
C1646       C  0.70552397  0.07748282  0.17197618     0.17000
C1647       C  0.69682886  0.06732380  0.18915440     0.03300
C1648       C  0.70925696  0.05425483  0.20099663    -0.11900
C1649       C  0.72976656  0.04978764  0.19517612    -0.03000
C1650       C  0.73839188  0.05934409  0.17780496     0.02500
C1651       C  0.69260996  0.09069825  0.15831972     0.09300
N1652       N  0.67493974  0.06804554  0.19334263     0.65700
H1653       H  0.70246131  0.04643784  0.21406514     0.18600
N1654       N  0.75884160  0.05399020  0.17081477     0.76200
H1655       H  0.73327312  0.08073873  0.15328606     0.10100
C1656       C  0.68109457  0.10761471  0.16565904     0.03800
C1657       C  0.66795230  0.11843049  0.15234561    -0.04900
C1658       C  0.66555757  0.11293472  0.13144080    -0.23300
C1659       C  0.67944041  0.09747415  0.12377399     0.13100
C1660       C  0.69201434  0.08625279  0.13729626    -0.12400
N1661       N  0.68342437  0.11491428  0.18626362     0.64700
H1662       H  0.66004466  0.13167475  0.15864928     0.12600
N1663       N  0.68116937  0.09270634  0.10236509     0.61400
H1664       H  0.70144420  0.07382113  0.13120453     0.08700
O1665       O  0.77448736  0.06389826  0.17719318    -0.40100
O1666       O  0.76151091  0.03761629  0.16072413    -0.39300
O1667       O  0.66268881  0.05818127  0.18177416    -0.39300
O1668       O  0.66878357  0.07320611  0.21103716    -0.37000
O1669       O  0.67378167  0.07592500  0.09587607    -0.37900
O1670       O  0.69586810  0.10084905  0.09237896    -0.34000
O1671       O  0.69858598  0.12657696  0.19042022    -0.35400
O1672       O  0.66777320  0.11491877  0.19803621    -0.39700
C1673       C  0.66517451  0.88780152  0.79750957    -0.13400
C1674       C  0.68709075  0.88654705  0.79783899     0.17000
C1675       C  0.69618116  0.87066405  0.80957214     0.03300
C1676       C  0.68373324  0.85806563  0.82195279    -0.11900
C1677       C  0.66183589  0.86046359  0.82331344    -0.03000
C1678       C  0.65260810  0.87433450  0.80900613     0.02500
C1679       C  0.70028591  0.90206829  0.78659935     0.09300
N1680       N  0.71805002  0.86640032  0.80852945     0.65700
H1681       H  0.69164917  0.84594471  0.83012060     0.18600
N1682       N  0.63063726  0.87417569  0.80494910     0.76200
H1683       H  0.65751948  0.89943175  0.78842683     0.10100
C1684       C  0.69576572  0.90877676  0.76636128     0.03800
C1685       C  0.70844013  0.92358731  0.75687139    -0.04900
C1686       C  0.72610158  0.93165009  0.76671487    -0.23300
C1687       C  0.73086145  0.92489570  0.78672769     0.13100
C1688       C  0.71767619  0.91081010  0.79662207    -0.12400
N1689       N  0.67878383  0.90039802  0.75484942     0.64700
H1690       H  0.70460704  0.92866860  0.74148926     0.12600
N1691       N  0.74923730  0.93185766  0.79707945     0.61400
H1692       H  0.72114066  0.90673410  0.81234696     0.08700
O1693       O  0.62410049  0.86587699  0.78862189    -0.40100
O1694       O  0.61848119  0.88556457  0.81510892    -0.39300
O1695       O  0.72934641  0.87001840  0.82400626    -0.39300
O1696       O  0.72463308  0.85419223  0.79490433    -0.37000
O1697       O  0.76597910  0.92188385  0.79488893    -0.37900
O1698       O  0.74757522  0.94428183  0.81190733    -0.34000
O1699       O  0.66298489  0.91145956  0.75145001    -0.35400
O1700       O  0.68196397  0.88485032  0.74366500    -0.39700
C1701       C  0.68914379  0.83190782  0.88086369    -0.13400
C1702       C  0.68718250  0.81059658  0.88145280     0.17000
C1703       C  0.67268293  0.80104788  0.86830539     0.03300
C1704       C  0.66064713  0.81284237  0.85472060    -0.11900
C1705       C  0.66267393  0.83446308  0.85349435    -0.03000
C1706       C  0.67714585  0.84389310  0.86751148     0.02500
C1707       C  0.69922042  0.79897839  0.89714100     0.09300
N1708       N  0.66984531  0.77929551  0.86861272     0.65700
H1709       H  0.64908586  0.80474330  0.84577622     0.18600
N1710       N  0.67952162  0.86570209  0.86924190     0.76200
H1711       H  0.69968234  0.83950711  0.89146865     0.10100
C1712       C  0.72125459  0.79896242  0.89726644     0.03800
C1713       C  0.73211550  0.78856156  0.91276066    -0.04900
C1714       C  0.72144369  0.77847404  0.92862687    -0.23300
C1715       C  0.69942270  0.77937781  0.92909482     0.13100
C1716       C  0.68853396  0.78930603  0.91325964    -0.12400
N1717       N  0.73283939  0.80940961  0.88173073     0.64700
H1718       H  0.74902731  0.78830529  0.91240761     0.12600
N1719       N  0.68790458  0.77058748  0.94567359     0.61400
H1720       H  0.67163943  0.78992978  0.91383259     0.08700
O1721       O  0.67075238  0.87468217  0.88413121    -0.40100
O1722       O  0.69551030  0.87396266  0.86152134    -0.39300
O1723       O  0.65376242  0.77189153  0.87698035    -0.39300
O1724       O  0.68049542  0.76820570  0.85662842    -0.37000
O1725       O  0.68274025  0.78183566  0.96065695    -0.37900
O1726       O  0.67870365  0.75365498  0.94302865    -0.34000
O1727       O  0.74050319  0.82685046  0.88561995    -0.35400
O1728       O  0.73921689  0.79953329  0.86625299    -0.39700
C1729       C  0.62716836  0.80879794  0.79731991    -0.13400
C1730       C  0.60552994  0.81066894  0.79960017     0.17000
C1731       C  0.59774489  0.82451878  0.81423635     0.03300
C1732       C  0.61144443  0.83655436  0.82589829    -0.11900
C1733       C  0.63345841  0.83413877  0.82497754    -0.03000
C1734       C  0.64110906  0.82025533  0.80958760     0.02500
C1735       C  0.59113471  0.79759478  0.78724635     0.09300
N1736       N  0.57585573  0.82576234  0.81832657     0.65700
H1737       H  0.60420735  0.84792718  0.83560054     0.18600
N1738       N  0.66293995  0.81798947  0.80551744     0.76200
H1739       H  0.63334463  0.79829986  0.78588385     0.10100
C1740       C  0.57957190  0.80551157  0.77057729     0.03800
C1741       C  0.56471513  0.79310169  0.76058499    -0.04900
C1742       C  0.56117594  0.77278854  0.76688246    -0.23300
C1743       C  0.57321907  0.76473464  0.78308829     0.13100
C1744       C  0.58804569  0.77710871  0.79307935    -0.12400
N1745       N  0.58278755  0.82605608  0.76357998     0.64700
H1746       H  0.55567496  0.79942631  0.74804256     0.12600
N1747       N  0.56993171  0.74425355  0.79012253     0.61400
H1748       H  0.59678230  0.77086739  0.80587194     0.08700
O1749       O  0.67062039  0.82733402  0.79033565    -0.40100
O1750       O  0.67232366  0.80234599  0.81221563    -0.39300
O1751       O  0.56789704  0.81361401  0.83120396    -0.39300
O1752       O  0.56588696  0.84164051  0.81318752    -0.37000
O1753       O  0.55811250  0.74117632  0.80530679    -0.37900
O1754       O  0.58190554  0.73009750  0.78405244    -0.34000
O1755       O  0.59440761  0.82914294  0.74824703    -0.35400
O1756       O  0.57052289  0.84007369  0.76939149    -0.39700
C1757       C  0.41268599  0.81072318  0.82976326    -0.13400
C1758       C  0.40912072  0.80986266  0.80857365     0.17000
C1759       C  0.39154135  0.82004132  0.80059987     0.03300
C1760       C  0.37914741  0.83222404  0.81352658    -0.11900
C1761       C  0.38373575  0.83495295  0.83463438    -0.03000
C1762       C  0.39984395  0.82220864  0.84287825     0.02500
C1763       C  0.42332083  0.79711176  0.79567313     0.09300
N1764       N  0.38514383  0.81719362  0.77975227     0.65700
H1765       H  0.36550237  0.83919988  0.80674067     0.18600
N1766       N  0.40359105  0.82053046  0.86447501     0.76200
H1767       H  0.42552311  0.80211393  0.83633379     0.10100
C1768       C  0.43467667  0.80528612  0.77894141     0.03800
C1769       C  0.44890583  0.79285858  0.76828971    -0.04900
C1770       C  0.45249349  0.77252490  0.77423402    -0.23300
C1771       C  0.44136889  0.76436053  0.79096266     0.13100
C1772       C  0.42679696  0.77658282  0.80136778    -0.12400
N1773       N  0.43308318  0.82642747  0.77333911     0.64700
H1774       H  0.45762363  0.79925894  0.75555352     0.12600
N1775       N  0.44518251  0.74394513  0.79797711     0.61400
H1776       H  0.41840590  0.77010855  0.81427513     0.08700
O1777       O  0.41996935  0.82836027  0.87190109    -0.40100
O1778       O  0.39521093  0.80579526  0.87394311    -0.39300
O1779       O  0.37509755  0.80118564  0.77505235    -0.39300
O1780       O  0.38412442  0.83257513  0.76805024    -0.37000
O1781       O  0.45762326  0.74116298  0.81273286    -0.37900
O1782       O  0.43276857  0.72975693  0.79293422    -0.34000
O1783       O  0.44353684  0.83953713  0.78327673    -0.35400
O1784       O  0.42668520  0.83093553  0.75558412    -0.39700
C1785       C  0.70148918  0.81777531  0.09911553    -0.13400
C1786       C  0.70002402  0.82107519  0.07795778     0.17000
C1787       C  0.68534886  0.83533756  0.07068400     0.03300
C1788       C  0.67248108  0.84591541  0.08440585    -0.11900
C1789       C  0.67463513  0.84410124  0.10595749    -0.03000
C1790       C  0.68897352  0.82874444  0.11308594     0.02500
C1791       C  0.71158938  0.80756712  0.06345013     0.09300
N1792       N  0.68350132  0.83958279  0.04922862     0.65700
H1793       H  0.66067462  0.85545476  0.07756675     0.18600
N1794       N  0.69069141  0.82347501  0.13435921     0.76200
H1795       H  0.71195705  0.80604951  0.10485613     0.10100
C1796       C  0.73360134  0.80633671  0.06308697     0.03800
C1797       C  0.74355979  0.79366947  0.04857993    -0.04900
C1798       C  0.73187992  0.78179756  0.03467386    -0.23300
C1799       C  0.70989992  0.78252481  0.03560399     0.13100
C1800       C  0.70002751  0.79531398  0.04985271    -0.12400
N1801       N  0.74604259  0.81809425  0.07702485     0.64700
H1802       H  0.76045938  0.79326647  0.04798969     0.12600
N1803       N  0.69735902  0.77019902  0.02224573     0.61400
H1804       H  0.68312372  0.79553284  0.05042854     0.08700
O1805       O  0.70661828  0.82917435  0.14424938    -0.40100
O1806       O  0.68051599  0.80822808  0.14088317    -0.39300
O1807       O  0.66775456  0.83316335  0.03949821    -0.39300
O1808       O  0.69464583  0.85352556  0.04146367    -0.37000
O1809       O  0.69258015  0.75219787  0.02760020    -0.37900
O1810       O  0.68735506  0.77865617  0.00788310    -0.34000
O1811       O  0.75430109  0.80930238  0.09223642    -0.35400
O1812       O  0.75256369  0.83556041  0.07167039    -0.39700
C1813       C  0.71310387  0.91280086  0.19188122    -0.13400
C1814       C  0.71495906  0.91349231  0.17038951     0.17000
C1815       C  0.72816694  0.92846320  0.16158268     0.03300
C1816       C  0.73888921  0.94243255  0.17422921    -0.11900
C1817       C  0.73629223  0.94236211  0.19564200    -0.03000
C1818       C  0.72353980  0.92704064  0.20450540     0.02500
C1819       C  0.70181292  0.89947513  0.15757315     0.09300
N1820       N  0.72950256  0.93091541  0.13982124     0.65700
H1821       H  0.74850740  0.95416354  0.16719695     0.18600
N1822       N  0.72021609  0.92631272  0.22619377     0.76200
H1823       H  0.70299703  0.90145556  0.19888568     0.10100
C1824       C  0.71045896  0.88489855  0.14406412     0.03800
C1825       C  0.69741990  0.87248441  0.13202541    -0.04900
C1826       C  0.67534786  0.87273745  0.13391073    -0.23300
C1827       C  0.66681122  0.88838522  0.14700028     0.13100
C1828       C  0.68004046  0.90117984  0.15861098    -0.12400
N1829       N  0.73249887  0.88163053  0.14301533     0.64700
H1830       H  0.70525600  0.86270769  0.12113560     0.12600
N1831       N  0.64492341  0.89295390  0.14736074     0.61400
H1832       H  0.67316455  0.91289330  0.16835725     0.08700
O1833       O  0.72971263  0.91302668  0.23672248    -0.40100
O1834       O  0.70453391  0.93527181  0.23378104    -0.39300
O1835       O  0.71505023  0.94026352  0.13058522    -0.39300
O1836       O  0.74694894  0.92882721  0.13105976    -0.37000
O1837       O  0.63270466  0.88263476  0.15846695    -0.37900
O1838       O  0.63863324  0.90976488  0.14000240    -0.34000
O1839       O  0.74079674  0.86946108  0.15565634    -0.35400
O1840       O  0.74198613  0.88555769  0.12650128    -0.39700
C1841       C  0.60582465  0.05131678  0.06178637    -0.13400
C1842       C  0.59480851  0.06575015  0.07355543     0.17000
C1843       C  0.57308688  0.06781253  0.07066436     0.03300
C1844       C  0.56292612  0.05573978  0.05594490    -0.11900
C1845       C  0.57402289  0.04169644  0.04372979    -0.03000
C1846       C  0.59573680  0.03943951  0.04684508     0.02500
C1847       C  0.60688630  0.08042459  0.08626337     0.09300
N1848       N  0.56114852  0.08230130  0.08228593     0.65700
H1849       H  0.54625484  0.05763666  0.05385667     0.18600
N1850       N  0.60815076  0.02668297  0.03377898     0.76200
H1851       H  0.62263055  0.05015674  0.06330999     0.10100
C1852       C  0.62022517  0.07387425  0.10200889     0.03800
C1853       C  0.63352727  0.08792564  0.11166177    -0.04900
C1854       C  0.63446122  0.10887948  0.10586445    -0.23300
C1855       C  0.61969177  0.11542331  0.09064065     0.13100
C1856       C  0.60667123  0.10114011  0.08093654    -0.12400
N1857       N  0.62006302  0.05304229  0.10884087     0.64700
H1858       H  0.64254696  0.08212595  0.12438073     0.12600
N1859       N  0.61725242  0.13641226  0.08460708     0.61400
H1860       H  0.59651127  0.10633298  0.06870091     0.08700
O1861       O  0.61507310  0.00988061  0.04056217    -0.40100
O1862       O  0.61621431  0.03433518  0.01785554    -0.39300
O1863       O  0.55538607  0.09878419  0.07386308    -0.39300
O1864       O  0.55194826  0.07637455  0.09834451    -0.37000
O1865       O  0.60151770  0.14599375  0.09127964    -0.37900
O1866       O  0.62483589  0.14199665  0.06762513    -0.34000
O1867       O  0.63460547  0.04114384  0.10339568    -0.35400
O1868       O  0.60868321  0.04816553  0.12387549    -0.39700
C1869       C  0.42745402  0.04554016  0.06821230    -0.13400
C1870       C  0.42876837  0.06700709  0.06748504     0.17000
C1871       C  0.44456546  0.07620824  0.05556502     0.03300
C1872       C  0.45801740  0.06392745  0.04383563    -0.11900
C1873       C  0.45613876  0.04245078  0.04376369    -0.03000
C1874       C  0.44100203  0.03322040  0.05657358     0.02500
C1875       C  0.41383264  0.07948322  0.07963444     0.09300
N1876       N  0.44751170  0.09795996  0.05557255     0.65700
H1877       H  0.46968911  0.07133124  0.03435442     0.18600
N1878       N  0.43949918  0.01141081  0.05839055     0.76200
H1879       H  0.41574895  0.03831066  0.07779827     0.10100
C1880       C  0.39793662  0.09091424  0.07018498     0.03800
C1881       C  0.38469358  0.10321838  0.08207973    -0.04900
C1882       C  0.38720824  0.10518216  0.10361289    -0.23300
C1883       C  0.40171304  0.09141843  0.11312695     0.13100
C1884       C  0.41498750  0.07921027  0.10105798    -0.12400
N1885       N  0.39439077  0.08954860  0.04855493     0.64700
H1886       H  0.37216998  0.11081863  0.07407304     0.12600
N1887       N  0.40339179  0.08959013  0.13497650     0.61400
H1888       H  0.42647922  0.06956262  0.10852355     0.08700
O1889       O  0.42465398  0.00211282  0.04967343    -0.40100
O1890       O  0.44954365  0.00246082  0.07242724    -0.39300
O1891       O  0.45975767  0.10585333  0.06855887    -0.39300
O1892       O  0.44267435  0.10809404  0.03979332    -0.37000
O1893       O  0.41874471  0.09764429  0.14407986    -0.37900
O1894       O  0.39376729  0.07514765  0.14373620    -0.34000
O1895       O  0.38233270  0.07578235  0.04178148    -0.35400
O1896       O  0.39843009  0.10484965  0.03739909    -0.39700
C1897       C  0.41842467  0.87221588  0.08333010    -0.13400
C1898       C  0.41632134  0.89353719  0.08468076     0.17000
C1899       C  0.40111209  0.90178379  0.09792202     0.03300
C1900       C  0.38886782  0.88877121  0.11001895    -0.11900
C1901       C  0.39072497  0.86707621  0.10900364    -0.03000
C1902       C  0.40613157  0.85900534  0.09517926     0.02500
C1903       C  0.42939109  0.90675675  0.07127393     0.09300
N1904       N  0.39822787  0.92348140  0.09975939     0.65700
H1905       H  0.37852063  0.89623629  0.12074548     0.18600
N1906       N  0.41006588  0.83743045  0.09323212     0.76200
H1907       H  0.42970629  0.86564037  0.07279244     0.10100
C1908       C  0.45136955  0.90499307  0.07079155     0.03800
C1909       C  0.46294457  0.91611653  0.05637279    -0.04900
C1910       C  0.45310127  0.92935965  0.04250160    -0.23300
C1911       C  0.43113666  0.93152421  0.04331771     0.13100
C1912       C  0.41956649  0.92012022  0.05749553    -0.12400
N1913       N  0.46223116  0.89221499  0.08502880     0.64700
H1914       H  0.47978176  0.91450281  0.05616231     0.12600
N1915       N  0.42012754  0.94421408  0.02909602     0.61400
H1916       H  0.40269486  0.92115403  0.05718118     0.08700
O1917       O  0.42599048  0.83006662  0.10192516    -0.40100
O1918       O  0.40245186  0.82785791  0.07810711    -0.39300
O1919       O  0.38243240  0.93170312  0.09163056    -0.39300
O1920       O  0.40837065  0.93330091  0.11318451    -0.37000
O1921       O  0.41443569  0.93673687  0.01209080    -0.37900
O1922       O  0.41194085  0.96071361  0.03534650    -0.34000
O1923       O  0.47081324  0.87594456  0.07867837    -0.35400
O1924       O  0.46752930  0.89955650  0.10221256    -0.39700
C1925       C  0.60979363  0.86635938  0.88161332    -0.13400
C1926       C  0.61165678  0.88769873  0.88041545     0.17000
C1927       C  0.62674903  0.89607044  0.86719660     0.03300
C1928       C  0.63834527  0.88323554  0.85424153    -0.11900
C1929       C  0.63574404  0.86162086  0.85408805    -0.03000
C1930       C  0.62209884  0.85331684  0.86943979     0.02500
C1931       C  0.59898293  0.90078538  0.89439119     0.09300
N1932       N  0.63087552  0.91763542  0.86697370     0.65700
H1933       H  0.64999687  0.89061287  0.84485034     0.18600
N1934       N  0.62062087  0.83172493  0.87330312     0.76200
H1935       H  0.59917863  0.85968272  0.89271105     0.10100
C1936       C  0.57695148  0.90017192  0.89422069     0.03800
C1937       C  0.56555061  0.91176547  0.90852140    -0.04900
C1938       C  0.57569970  0.92447091  0.92279529    -0.23300
C1939       C  0.59776224  0.92513750  0.92289499     0.13100
C1940       C  0.60911894  0.91315403  0.90894572    -0.12400
N1941       N  0.56591597  0.88841490  0.87917125     0.64700
H1942       H  0.54864691  0.91120764  0.90812003     0.12600
N1943       N  0.60896327  0.93713922  0.93763675     0.61400
H1944       H  0.62600339  0.91320825  0.90978968     0.08700
O1945       O  0.63148335  0.82431940  0.88765261    -0.40100
O1946       O  0.60424051  0.82231273  0.86804246    -0.39300
O1947       O  0.64671131  0.92444504  0.87630302    -0.39300
O1948       O  0.62200595  0.92875760  0.85376886    -0.37000
O1949       O  0.61450582  0.92900483  0.95433416    -0.37900
O1950       O  0.61726536  0.95381475  0.93213483    -0.34000
O1951       O  0.55614693  0.87249940  0.88459021    -0.35400
O1952       O  0.56207412  0.89632036  0.86191199    -0.39700
C1953       C  0.43974231  0.07755686  0.91017909    -0.13400
C1954       C  0.42668398  0.06717743  0.89627778     0.17000
C1955       C  0.42737194  0.04550100  0.89558435     0.03300
C1956       C  0.44041564  0.03479122  0.90918842    -0.11900
C1957       C  0.45359912  0.04522249  0.92296227    -0.03000
C1958       C  0.45330585  0.06690880  0.92320305     0.02500
C1959       C  0.41375248  0.07983166  0.88212518     0.09300
N1960       N  0.41617795  0.03414329  0.88033720     0.65700
H1961       H  0.44073825  0.01815865  0.90849573     0.18600
N1962       N  0.46620282  0.07845393  0.93691227     0.76200
H1963       H  0.43951354  0.09420060  0.91082593     0.10100
C1964       C  0.39182361  0.07905908  0.88162572     0.03800
C1965       C  0.38069675  0.09365749  0.87027220    -0.04900
C1966       C  0.39060754  0.10965739  0.85921308    -0.23300
C1967       C  0.41305261  0.10874901  0.85810083     0.13100
C1968       C  0.42394158  0.09435999  0.86996772    -0.12400
N1969       N  0.38038258  0.06429083  0.89327777     0.64700
H1970       H  0.36380103  0.09301631  0.87086448     0.12600
N1971       N  0.42552456  0.12056337  0.84415885     0.61400
H1972       H  0.44086212  0.09431965  0.86943102     0.08700
O1973       O  0.45858674  0.08492169  0.95359740    -0.40100
O1974       O  0.48280692  0.08641002  0.93019236    -0.39300
O1975       O  0.42390846  0.03248710  0.86257906    -0.39300
O1976       O  0.40247549  0.02141726  0.88595130    -0.37000
O1977       O  0.43971570  0.13186216  0.85146630    -0.37900
O1978       O  0.42794176  0.11399327  0.82608808    -0.34000
O1979       O  0.37638589  0.06801021  0.91189763    -0.35400
O1980       O  0.36959169  0.05105398  0.88386299    -0.39700
C1981       C  0.39153938  0.89403747  0.88472298    -0.13400
C1982       C  0.41299275  0.89371560  0.88092937     0.17000
C1983       C  0.42077574  0.88061197  0.86557860     0.03300
C1984       C  0.40732174  0.86738347  0.85510370    -0.11900
C1985       C  0.38574698  0.86625925  0.85965374    -0.03000
C1986       C  0.37784281  0.88106023  0.87405172     0.02500
C1987       C  0.42724231  0.90568290  0.89431750     0.09300
N1988       N  0.44237953  0.88080083  0.86010053     0.65700
H1989       H  0.41414763  0.85851476  0.84279666     0.18600
N1990       N  0.35602284  0.88335818  0.87824933     0.76200
H1991       H  0.38531020  0.90416379  0.89645284     0.10100
C1992       C  0.42510931  0.92705869  0.89719466     0.03800
C1993       C  0.43837351  0.93736143  0.91083767    -0.04900
C1994       C  0.45378144  0.92677040  0.92191553    -0.23300
C1995       C  0.45568377  0.90531303  0.91921512     0.13100
C1996       C  0.44246953  0.89505959  0.90551771    -0.12400
N1997       N  0.40970687  0.93858482  0.88631650     0.64700
H1998       H  0.43655753  0.95380690  0.91274966     0.12600
N1999       N  0.47001594  0.89344419  0.93107040     0.61400
H2000       H  0.44368174  0.87851207  0.90411589     0.08700
O2001       O  0.34881511  0.87626458  0.89481583    -0.40100
O2002       O  0.34649854  0.89812173  0.86994362    -0.39300
O2003       O  0.45397021  0.86619228  0.86571663    -0.39300
O2004       O  0.44849184  0.89257030  0.84596664    -0.37000
O2005       O  0.46392988  0.88556131  0.94771181    -0.37900
O2006       O  0.48650070  0.88685863  0.92273543    -0.34000
O2007       O  0.39380771  0.94501406  0.89581189    -0.35400
O2008       O  0.41442779  0.94652290  0.86928598    -0.39700
C2009       C  0.58681129  0.89632395  0.06082315    -0.13400
C2010       C  0.60093157  0.90761329  0.07293946     0.17000
C2011       C  0.60159134  0.92918723  0.07052227     0.03300
C2012       C  0.58865958  0.93879865  0.05605805    -0.11900
C2013       C  0.57465092  0.92749749  0.04387515    -0.03000
C2014       C  0.57364409  0.90598241  0.04656585     0.02500
C2015       C  0.61580248  0.89635270  0.08663990     0.09300
N2016       N  0.61508227  0.94169167  0.08277510     0.65700
H2017       H  0.58958856  0.95533299  0.05440122     0.18600
N2018       N  0.56040012  0.89347449  0.03407363     0.76200
H2019       H  0.58652507  0.87972818  0.06183050     0.10100
C2020       C  0.60891291  0.88134096  0.10060312     0.03800
C2021       C  0.62336018  0.86960713  0.11164324    -0.04900
C2022       C  0.64524915  0.87176414  0.10907130    -0.23300
C2023       C  0.65192666  0.88829058  0.09616189     0.13100
C2024       C  0.63733485  0.89973880  0.08484155    -0.12400
N2025       N  0.58716072  0.87810920  0.10430255     0.64700
H2026       H  0.61681951  0.85910606  0.12266086     0.12600
N2027       N  0.67343632  0.89402914  0.09444851     0.61400
H2028       H  0.64304584  0.91122852  0.07425714     0.08700
O2029       O  0.54372763  0.88642920  0.04159364    -0.40100
O2030       O  0.56764569  0.88559201  0.01783718    -0.39300
O2031       O  0.63073541  0.95003850  0.07449938    -0.39300
O2032       O  0.60846896  0.94860881  0.09969161    -0.37000
O2033       O  0.68333333  0.88941056  0.07832586    -0.37900
O2034       O  0.68000951  0.90878357  0.10528053    -0.34000
O2035       O  0.57858678  0.86197374  0.09759455    -0.35400
O2036       O  0.57825808  0.88824331  0.11834092    -0.39700
C2037       C  0.69243814  0.08692600  0.81892836    -0.13400
C2038       C  0.68340938  0.08049947  0.80038883     0.17000
C2039       C  0.66231470  0.08590882  0.79696186     0.03300
C2040       C  0.65146117  0.09754388  0.81163658    -0.11900
C2041       C  0.66163214  0.10760517  0.82810023    -0.03000
C2042       C  0.68250004  0.10058720  0.83243024     0.02500
C2043       C  0.69591660  0.06686534  0.78621701     0.09300
N2044       N  0.65181551  0.08102163  0.77820135     0.65700
H2045       H  0.63505430  0.10025256  0.80898420     0.18600
N2046       N  0.69370914  0.10522269  0.85098270     0.76200
H2047       H  0.70747153  0.08092934  0.82345602     0.10100
C2048       C  0.71786778  0.06938946  0.78383906     0.03800
C2049       C  0.72959420  0.05462214  0.77327634    -0.04900
C2050       C  0.71992342  0.03814364  0.76330320    -0.23300
C2051       C  0.69806020  0.03654518  0.76383573     0.13100
C2052       C  0.68639379  0.05009598  0.77607832    -0.12400
N2053       N  0.72854833  0.08721533  0.79128340     0.64700
H2054       H  0.74640056  0.05633645  0.77237137     0.12600
N2055       N  0.68755096  0.02181101  0.75120553     0.61400
H2056       H  0.66990178  0.04717327  0.77767460     0.08700
O2057       O  0.70921724  0.11710911  0.84981823    -0.40100
O2058       O  0.69390309  0.09193177  0.86504573    -0.39300
O2059       O  0.63659769  0.06871095  0.77855956    -0.39300
O2060       O  0.65373693  0.09302124  0.76313756    -0.37000
O2061       O  0.68682386  0.02442528  0.73201569    -0.37900
O2062       O  0.68096393  0.00524514  0.75882553    -0.34000
O2063       O  0.74207296  0.08526535  0.80524355    -0.35400
O2064       O  0.72875531  0.10316951  0.78034068    -0.39700
C2065       C  0.59710389  0.04676270  0.89055556    -0.13400
C2066       C  0.59446220  0.06820791  0.89126796     0.17000
C2067       C  0.57981220  0.07652417  0.90513621     0.03300
C2068       C  0.56857941  0.06355641  0.91818658    -0.11900
C2069       C  0.57173299  0.04219516  0.91808355    -0.03000
C2070       C  0.58604336  0.03375529  0.90386959     0.02500
C2071       C  0.60748901  0.08165096  0.87791318     0.09300
N2072       N  0.57690559  0.09820556  0.90698360     0.65700
H2073       H  0.55779561  0.07044611  0.92902563     0.18600
N2074       N  0.58904614  0.01206749  0.90221557     0.76200
H2075       H  0.60783427  0.04004883  0.87956365     0.10100
C2076       C  0.62931686  0.08027885  0.87821576     0.03800
C2077       C  0.64120216  0.09301866  0.86573009    -0.04900
C2078       C  0.63247457  0.10834423  0.85307240    -0.23300
C2079       C  0.61016801  0.10842874  0.85149891     0.13100
C2080       C  0.59814582  0.09552735  0.86426391    -0.12400
N2081       N  0.63991458  0.06675552  0.89195633     0.64700
H2082       H  0.65776147  0.09169371  0.86705055     0.12600
N2083       N  0.59919457  0.11990412  0.83623237     0.61400
H2084       H  0.58128990  0.09583035  0.86295497     0.08700
O2085       O  0.60550221  0.00413455  0.90928947    -0.40100
O2086       O  0.57807861  0.00195276  0.88965805    -0.39300
O2087       O  0.56088422  0.10633846  0.89921219    -0.39300
O2088       O  0.58715207  0.10799882  0.92035778    -0.37000
O2089       O  0.59940396  0.11364506  0.81787215    -0.37900
O2090       O  0.58494156  0.13208222  0.84179006    -0.34000
O2091       O  0.64846074  0.05077334  0.88486544    -0.35400
O2092       O  0.64545201  0.07341724  0.90934242    -0.39700
C2093       C  0.41356677  0.16907941  0.83117845    -0.13400
C2094       C  0.41158125  0.16901186  0.80976363     0.17000
C2095       C  0.39591845  0.15645660  0.80101822     0.03300
C2096       C  0.38461663  0.14278815  0.81332081    -0.11900
C2097       C  0.38780248  0.14137128  0.83476851    -0.03000
C2098       C  0.40096186  0.15675337  0.84369386     0.02500
C2099       C  0.42684809  0.18076076  0.79684658     0.09300
N2100       N  0.39060230  0.15785761  0.77973657     0.65700
H2101       H  0.37283358  0.13374387  0.80565841     0.18600
N2102       N  0.40149426  0.16077967  0.86530534     0.76200
H2103       H  0.42519221  0.17858419  0.83854030     0.10100
C2104       C  0.43398720  0.20075305  0.80207855     0.03800
C2105       C  0.44947136  0.21020383  0.79023362    -0.04900
C2106       C  0.45760301  0.20072377  0.77262913    -0.23300
C2107       C  0.45038067  0.18102190  0.76711614     0.13100
C2108       C  0.43569796  0.17105231  0.77954801    -0.12400
N2109       N  0.42536435  0.21211361  0.81888585     0.64700
H2110       H  0.45480040  0.22544438  0.79448220     0.12600
N2111       N  0.45735932  0.17108838  0.74874688     0.61400
H2112       H  0.43130849  0.15549099  0.77560138     0.08700
O2113       O  0.38896662  0.17398290  0.87239701    -0.40100
O2114       O  0.41823439  0.15763788  0.87499549    -0.39300
O2115       O  0.39374881  0.14259376  0.76814006    -0.39300
O2116       O  0.37794800  0.17157451  0.77409684    -0.37000
O2117       O  0.46863151  0.15525289  0.75007416    -0.37900
O2118       O  0.44780472  0.17454333  0.73217252    -0.34000
O2119       O  0.43660466  0.21558476  0.83444148    -0.35400
O2120       O  0.40966242  0.22336044  0.81573097    -0.39700
C2121       C  0.60027216  0.18982440  0.77640035    -0.13400
C2122       C  0.59616684  0.18280167  0.79642417     0.17000
C2123       C  0.57704344  0.18885372  0.80576979     0.03300
C2124       C  0.56276626  0.20085566  0.79493515    -0.11900
C2125       C  0.56601977  0.20583460  0.77430704    -0.03000
C2126       C  0.58508716  0.20018394  0.76496509     0.02500
C2127       C  0.61164703  0.16915626  0.80710689     0.09300
N2128       N  0.57110419  0.18221845  0.82583742     0.65700
H2129       H  0.54842246  0.20551087  0.80246802     0.18600
N2130       N  0.58893276  0.20387799  0.74365182     0.76200
H2131       H  0.61517213  0.18690127  0.76920677     0.10100
C2132       C  0.62345927  0.15393232  0.79676315     0.03800
C2133       C  0.63712740  0.14130213  0.80775454    -0.04900
C2134       C  0.63686386  0.14041149  0.82946532    -0.23300
C2135       C  0.62621243  0.15700588  0.83955771     0.13100
C2136       C  0.61498670  0.17148341  0.82820595    -0.12400
N2137       N  0.62095382  0.14990888  0.77530401     0.64700
H2138       H  0.64737350  0.13190313  0.79866154     0.12600
N2139       N  0.62692743  0.16016383  0.86127989     0.61400
H2140       H  0.60838439  0.18444514  0.83632005     0.08700
O2141       O  0.60285236  0.21659133  0.73853219    -0.40100
O2142       O  0.58284161  0.19076983  0.73065504    -0.39300
O2143       O  0.57053004  0.19521223  0.84026639    -0.39300
O2144       O  0.56085711  0.16578079  0.82761034    -0.37000
O2145       O  0.63845299  0.17432084  0.86819615    -0.37900
O2146       O  0.61173613  0.15421192  0.87206136    -0.34000
O2147       O  0.63592948  0.15345432  0.76321997    -0.35400
O2148       O  0.60635376  0.13825857  0.76948133    -0.39700
C2149       C  0.42635160  0.83777097  0.15655694    -0.13400
C2150       C  0.42499106  0.81637090  0.15711710     0.17000
C2151       C  0.40898409  0.80660494  0.14610308     0.03300
C2152       C  0.39461577  0.81827376  0.13494022    -0.11900
C2153       C  0.39444342  0.84003620  0.13548822    -0.03000
C2154       C  0.41173576  0.84966564  0.14582313     0.02500
C2155       C  0.44007671  0.80475428  0.16989847     0.09300
N2156       N  0.40629429  0.78483549  0.14692466     0.65700
H2157       H  0.38384972  0.80967921  0.12563803     0.18600
N2158       N  0.41607287  0.87120010  0.14416803     0.76200
H2159       H  0.43911545  0.84539248  0.16442288     0.10100
C2160       C  0.45567782  0.79206017  0.16126820     0.03800
C2161       C  0.46986525  0.78192796  0.17413954    -0.04900
C2162       C  0.46904118  0.78444272  0.19553480    -0.23300
C2163       C  0.45366749  0.79737455  0.20410313     0.13100
C2164       C  0.43933225  0.80731347  0.19128212    -0.12400
N2165       N  0.45810970  0.79018896  0.13952291     0.64700
H2166       H  0.48179315  0.77221530  0.16739095     0.12600
N2167       N  0.45284683  0.80113077  0.22570133     0.61400
H2168       H  0.42765341  0.81730847  0.19804631     0.08700
O2169       O  0.41069333  0.88317158  0.15847843    -0.40100
O2170       O  0.43049252  0.87684371  0.13222941    -0.39300
O2171       O  0.39612210  0.77726407  0.16167019    -0.39300
O2172       O  0.40864648  0.77435080  0.13075531    -0.37000
O2173       O  0.46230686  0.81651554  0.23298135    -0.37900
O2174       O  0.43886236  0.79254406  0.23628028    -0.34000
O2175       O  0.47036193  0.80228326  0.13039393    -0.35400
O2176       O  0.45297101  0.77361302  0.13079936    -0.39700
C2177       C  0.61194635  0.79817744  0.19312819    -0.13400
C2178       C  0.60709861  0.80560895  0.17341508     0.17000
C2179       C  0.58685377  0.80142912  0.16556138     0.03300
C2180       C  0.57274908  0.78953220  0.17685277    -0.11900
C2181       C  0.57709434  0.78332789  0.19703046    -0.03000
C2182       C  0.59694457  0.78823497  0.20532173     0.02500
C2183       C  0.62312728  0.81715004  0.16098784     0.09300
N2184       N  0.57970954  0.81016689  0.14670202     0.65700
H2185       H  0.55775666  0.78591471  0.17003702     0.18600
N2186       N  0.60186763  0.78427282  0.22637275     0.76200
H2187       H  0.62737925  0.80029754  0.19944465     0.10100
C2188       C  0.63708609  0.83172586  0.16954590     0.03800
C2189       C  0.65055049  0.84293493  0.15679337    -0.04900
C2190       C  0.64926031  0.84191936  0.13512620    -0.23300
C2191       C  0.63678074  0.82565083  0.12686019     0.13100
C2192       C  0.62462202  0.81335217  0.13981707    -0.12400
N2193       N  0.63724189  0.83638008  0.19101312     0.64700
H2194       H  0.66126973  0.85325583  0.16434443     0.12600
N2195       N  0.63577099  0.82143823  0.10529032     0.61400
H2196       H  0.61586862  0.80087850  0.13298375     0.08700
O2197       O  0.61669032  0.77225142  0.23064628    -0.40100
O2198       O  0.59546402  0.79662618  0.23995185    -0.39300
O2199       O  0.57575325  0.79852669  0.13165566    -0.39300
O2200       O  0.57249357  0.82819958  0.14681075    -0.37000
O2201       O  0.64702877  0.80724662  0.09805380    -0.37900
O2202       O  0.61964183  0.82665404  0.09548376    -0.34000
O2203       O  0.65272989  0.83098546  0.20169654    -0.35400
O2204       O  0.62528367  0.85024307  0.19775805    -0.39700
C2205       C  0.19156299  0.91350581  0.68712925    -0.13400
C2206       C  0.20185149  0.90374253  0.67066769     0.17000
C2207       C  0.22249263  0.91012777  0.66597598     0.03300
C2208       C  0.23190641  0.92605508  0.67722154    -0.11900
C2209       C  0.22189663  0.93504793  0.69415841    -0.03000
C2210       C  0.20161685  0.92832650  0.69931493     0.02500
C2211       C  0.19043354  0.88814693  0.65775755     0.09300
N2212       N  0.23452382  0.90011946  0.65038446     0.65700
H2213       H  0.24753655  0.93095113  0.67315059     0.18600
N2214       N  0.19116572  0.93602790  0.71715623     0.76200
H2215       H  0.17552908  0.90976360  0.69063813     0.10100
C2216       C  0.17740048  0.87281717  0.66621420     0.03800
C2217       C  0.16600416  0.85963815  0.65333691    -0.04900
C2218       C  0.16766683  0.86019087  0.63164525    -0.23300
C2219       C  0.18067443  0.87598911  0.62333449     0.13100
C2220       C  0.19137331  0.88963307  0.63630820    -0.12400
N2221       N  0.17526507  0.87028438  0.68792084     0.64700
H2222       H  0.15529800  0.84938888  0.66090446     0.12600
N2223       N  0.18236300  0.87949848  0.60170975     0.61400
H2224       H  0.20000006  0.90206352  0.62931352     0.08700
O2225       O  0.17533723  0.94736434  0.71506374    -0.40100
O2226       O  0.19432792  0.92742610  0.73421026    -0.39300
O2227       O  0.23926852  0.90982599  0.63429572    -0.39300
O2228       O  0.24451332  0.88404276  0.65484976    -0.37000
O2229       O  0.17235426  0.89432108  0.59406366    -0.37900
O2230       O  0.19837377  0.87310152  0.59239069    -0.34000
O2231       O  0.15823211  0.87514707  0.69639640    -0.35400
O2232       O  0.18743598  0.85815865  0.69709295    -0.39700
C2233       C  0.20353441  0.07568850  0.69213408    -0.13400
C2234       C  0.19796923  0.07149513  0.67160081     0.17000
C2235       C  0.20512390  0.05272368  0.66289561     0.03300
C2236       C  0.21785060  0.03945208  0.67430078    -0.11900
C2237       C  0.22193161  0.04287492  0.69522446    -0.03000
C2238       C  0.21442758  0.06132041  0.70417252     0.02500
C2239       C  0.18558230  0.08704602  0.65937387     0.09300
N2240       N  0.19832341  0.04588928  0.64310673     0.65700
H2241       H  0.22350905  0.02554212  0.66699809     0.18600
N2242       N  0.21676384  0.06535808  0.72565699     0.76200
H2243       H  0.19913326  0.09010595  0.69917161     0.10100
C2244       C  0.16891745  0.09856920  0.66780653     0.03800
C2245       C  0.15849252  0.11337648  0.65592402    -0.04900
C2246       C  0.16303111  0.11682340  0.63482380    -0.23300
C2247       C  0.17852050  0.10344388  0.62613286     0.13100
C2248       C  0.19046246  0.09044411  0.63867504    -0.12400
N2249       N  0.16108831  0.09448397  0.68795728     0.64700
H2250       H  0.14552484  0.12088290  0.66337397     0.12600
N2251       N  0.18174642  0.10158021  0.60444395     0.61400
H2252       H  0.20334404  0.08232749  0.63167008     0.08700
O2253       O  0.22803707  0.08017457  0.73147552    -0.40100
O2254       O  0.20374416  0.05779209  0.73805082    -0.39300
O2255       O  0.21152948  0.04391559  0.62884432    -0.39300
O2256       O  0.18101443  0.03675699  0.64161278    -0.37000
O2257       O  0.17108894  0.08838115  0.59483085    -0.37900
O2258       O  0.19932129  0.10645429  0.59716748    -0.34000
O2259       O  0.16319350  0.10791999  0.70182492    -0.35400
O2260       O  0.14755673  0.08058963  0.69022353    -0.39700
C2261       C  0.30303965  0.06188996  0.80481267    -0.13400
C2262       C  0.32119902  0.07057603  0.79624636     0.17000
C2263       C  0.32690675  0.06423072  0.77605631     0.03300
C2264       C  0.31505250  0.04933095  0.76563406    -0.11900
C2265       C  0.29657574  0.04146499  0.77402107    -0.03000
C2266       C  0.29026946  0.04841118  0.79360079     0.02500
C2267       C  0.33446860  0.08498483  0.80900314     0.09300
N2268       N  0.34421196  0.07315069  0.76544961     0.65700
H2269       H  0.32000430  0.04428611  0.75051506     0.18600
N2270       N  0.27061315  0.04243928  0.80210140     0.76200
H2271       H  0.29856385  0.06540088  0.82041526     0.10100
C2272       C  0.32600501  0.09938193  0.82305003     0.03800
C2273       C  0.33913766  0.11082578  0.83601163    -0.04900
C2274       C  0.36122018  0.11079904  0.83404245    -0.23300
C2275       C  0.36944516  0.09610639  0.81976578     0.13100
C2276       C  0.35622742  0.08319007  0.80839076    -0.12400
N2277       N  0.30407355  0.10334788  0.82407108     0.64700
H2278       H  0.33125574  0.11976108  0.84756601     0.12600
N2279       N  0.39127927  0.09347481  0.81649857     0.61400
H2280       H  0.36339492  0.07132841  0.79914105     0.08700
O2281       O  0.27017453  0.03126838  0.81789827    -0.40100
O2282       O  0.25452902  0.05252696  0.79731873    -0.39300
O2283       O  0.35988145  0.06213181  0.76130221    -0.39300
O2284       O  0.34150432  0.08962885  0.75566296    -0.37000
O2285       O  0.39890630  0.10007425  0.79990165    -0.37900
O2286       O  0.40022049  0.07859729  0.82523613    -0.34000
O2287       O  0.29418711  0.09872595  0.84018381    -0.35400
O2288       O  0.29625161  0.11625960  0.81188606    -0.39700
C2289       C  0.29917403  0.90227554  0.79198932    -0.13400
C2290       C  0.31907447  0.90784398  0.79916955     0.17000
C2291       C  0.32737299  0.92701758  0.79291189     0.03300
C2292       C  0.31616907  0.93950300  0.77941335    -0.11900
C2293       C  0.29560117  0.93477871  0.77361831    -0.03000
C2294       C  0.28710304  0.91575731  0.78009459     0.02500
C2295       C  0.33156349  0.89303357  0.81178742     0.09300
N2296       N  0.34643917  0.93488505  0.80124344     0.65700
H2297       H  0.32317536  0.95381628  0.77447790     0.18600
N2298       N  0.26605466  0.91008046  0.77550625     0.76200
H2299       H  0.29271691  0.88742159  0.79579540     0.10100
C2300       C  0.32305124  0.88152390  0.82815248     0.03800
C2301       C  0.33561042  0.86768584  0.83909866    -0.04900
C2302       C  0.35707437  0.86503126  0.83476014    -0.23300
C2303       C  0.36558491  0.87757086  0.81875176     0.13100
C2304       C  0.35263272  0.89017327  0.80702411    -0.12400
N2305       N  0.30196098  0.88434960  0.83473559     0.64700
H2306       H  0.32845662  0.86007592  0.85201769     0.12600
N2307       N  0.38746622  0.87853497  0.81431833     0.61400
H2308       H  0.35946110  0.89813645  0.79410930     0.08700
O2309       O  0.25163449  0.91631255  0.78715683    -0.40100
O2310       O  0.26271380  0.89476307  0.76402763    -0.39300
O2311       O  0.36198651  0.93725319  0.78957605    -0.39300
O2312       O  0.34590905  0.94443117  0.81813625    -0.37000
O2313       O  0.39408736  0.87011784  0.79808767    -0.37900
O2314       O  0.39760963  0.89360195  0.82137816    -0.34000
O2315       O  0.28887686  0.87019482  0.83156922    -0.35400
O2316       O  0.29804559  0.89777380  0.84821620    -0.39700
C2317       C  0.09263171  0.64855194  0.14977148    -0.13400
C2318       C  0.10106835  0.66104975  0.16507777     0.17000
C2319       C  0.12263190  0.66071992  0.16849703     0.03300
C2320       C  0.13555101  0.64930365  0.15547892    -0.11900
C2321       C  0.12764982  0.63745363  0.13889572    -0.03000
C2322       C  0.10522792  0.63601614  0.13734712     0.02500
C2323       C  0.08676265  0.67343823  0.17792464     0.09300
N2324       N  0.13174670  0.67207445  0.18502115     0.65700
H2325       H  0.15221953  0.65020977  0.15808448     0.18600
N2326       N  0.09435619  0.62102179  0.12518703     0.76200
H2327       H  0.07580388  0.64772780  0.14815739     0.10100
C2328       C  0.07570195  0.69010881  0.16949973     0.03800
C2329       C  0.06097292  0.70061765  0.18142542    -0.04900
C2330       C  0.05692007  0.69462842  0.20168354    -0.23300
C2331       C  0.06785858  0.67786032  0.21009478     0.13100
C2332       C  0.08276518  0.66746079  0.19821631    -0.12400
N2333       N  0.07932870  0.69651823  0.14884204     0.64700
H2334       H  0.05264747  0.71352295  0.17488165     0.12600
N2335       N  0.06344460  0.67080823  0.23038163     0.61400
H2336       H  0.09082973  0.65433397  0.20463765     0.08700
O2337       O  0.08068533  0.62711311  0.11265481    -0.40100
O2338       O  0.09269302  0.60298066  0.13194459    -0.39300
O2339       O  0.13725129  0.66272870  0.20108070    -0.39300
O2340       O  0.13839479  0.69002605  0.18185511    -0.37000
O2341       O  0.05011340  0.65677436  0.23291929    -0.37900
O2342       O  0.07570467  0.67534543  0.24486297    -0.34000
O2343       O  0.06645387  0.69169564  0.13497874    -0.35400
O2344       O  0.09311462  0.70986022  0.14520710    -0.39700
C2345       C  0.84189529  0.64324176  0.07196716    -0.13400
C2346       C  0.84116799  0.66462968  0.07488790     0.17000
C2347       C  0.85113491  0.67267252  0.09241237     0.03300
C2348       C  0.86070225  0.65951547  0.10659367    -0.11900
C2349       C  0.85964711  0.63774568  0.10530337    -0.03000
C2350       C  0.85124890  0.62987022  0.08636167     0.02500
C2351       C  0.82918334  0.67775371  0.05989662     0.09300
N2352       N  0.85093838  0.69417206  0.09690882     0.65700
H2353       H  0.86906731  0.66718220  0.11867237     0.18600
N2354       N  0.85414370  0.60890055  0.08006579     0.76200
H2355       H  0.83528962  0.63675429  0.05806080     0.10100
C2356       C  0.83773700  0.69508896  0.04967658     0.03800
C2357       C  0.82539939  0.70650019  0.03587689    -0.04900
C2358       C  0.80478194  0.70079991  0.03135681    -0.23300
C2359       C  0.79628773  0.68357092  0.04141179     0.13100
C2360       C  0.80836585  0.67239332  0.05551907    -0.12400
N2361       N  0.85918793  0.70068411  0.05194728     0.64700
H2362       H  0.83219828  0.71957647  0.02808268     0.12600
N2363       N  0.77542318  0.67705872  0.03727355     0.61400
H2364       H  0.80138503  0.65928553  0.06310116     0.08700
O2365       O  0.86334555  0.60502662  0.06334670    -0.40100
O2366       O  0.84601582  0.59435250  0.08993902    -0.39300
O2367       O  0.83501806  0.70175103  0.10545773    -0.39300
O2368       O  0.86810520  0.70358613  0.09837975    -0.37000
O2369       O  0.77227382  0.66320105  0.02404307    -0.37900
O2370       O  0.76105059  0.68171635  0.04969572    -0.34000
O2371       O  0.87284545  0.69043197  0.04243286    -0.35400
O2372       O  0.86364030  0.71861889  0.05793858    -0.39700
C2373       C  0.92437236  0.67151193  0.19820147    -0.13400
C2374       C  0.92069104  0.67721073  0.17772911     0.17000
C2375       C  0.93066789  0.69488607  0.16989922     0.03300
C2376       C  0.94443000  0.70615873  0.18235895    -0.11900
C2377       C  0.94845724  0.70016066  0.20262822    -0.03000
C2378       C  0.93812779  0.68285189  0.21063974     0.02500
C2379       C  0.90797994  0.66352989  0.16430137     0.09300
N2380       N  0.92723543  0.70143704  0.14925070     0.65700
H2381       H  0.95244875  0.71935692  0.17602493     0.18600
N2382       N  0.94228070  0.67615032  0.23110019     0.76200
H2383       H  0.91702006  0.65785199  0.20433037     0.10100
C2384       C  0.91772499  0.64902249  0.15159458     0.03800
C2385       C  0.90580798  0.63612441  0.13908471    -0.04900
C2386       C  0.88368933  0.63751682  0.13783379    -0.23300
C2387       C  0.87394742  0.65078962  0.15262734     0.13100
C2388       C  0.88612104  0.66382858  0.16518994    -0.12400
N2389       N  0.93989083  0.64651801  0.15179101     0.64700
H2390       H  0.91459795  0.62466389  0.13083712     0.12600
N2391       N  0.85180770  0.65077461  0.15570830     0.61400
H2392       H  0.87841726  0.67413107  0.17587374     0.08700
O2393       O  0.95716744  0.66391366  0.23440868    -0.40100
O2394       O  0.93347638  0.68501160  0.24602808    -0.39300
O2395       O  0.91435078  0.71569227  0.14590628    -0.39300
O2396       O  0.94055112  0.69704789  0.13564756    -0.37000
O2397       O  0.84061274  0.66353085  0.14621366    -0.37900
O2398       O  0.84450608  0.64233897  0.17159053    -0.34000
O2399       O  0.94783970  0.63321705  0.16346926    -0.35400
O2400       O  0.95049816  0.65330435  0.13696152    -0.39700
C2401       C  0.83174680  0.39628969  0.82856009    -0.13400
C2402       C  0.83406287  0.39564851  0.80728346     0.17000
C2403       C  0.84939928  0.38248469  0.79902354     0.03300
C2404       C  0.86148830  0.37003358  0.81200071    -0.11900
C2405       C  0.85812215  0.36910009  0.83354747    -0.03000
C2406       C  0.84324053  0.38350480  0.84159084     0.02500
C2407       C  0.82159840  0.41023025  0.79445073     0.09300
N2408       N  0.85272337  0.38116628  0.77736092     0.65700
H2409       H  0.87374857  0.36139014  0.80465206     0.18600
N2410       N  0.83954388  0.38602931  0.86304344     0.76200
H2411       H  0.82114082  0.40732150  0.83538358     0.10100
C2412       C  0.79967568  0.41217372  0.79666749     0.03800
C2413       C  0.78880219  0.42728689  0.78570442    -0.04900
C2414       C  0.79921123  0.44073710  0.77240429    -0.23300
C2415       C  0.82105016  0.43884410  0.77013737     0.13100
C2416       C  0.83198062  0.42379772  0.78117020    -0.12400
N2417       N  0.78812688  0.39894608  0.80997270     0.64700
H2418       H  0.77206703  0.42866780  0.78773192     0.12600
N2419       N  0.83241080  0.45216539  0.75679691     0.61400
H2420       H  0.84880576  0.42316241  0.77977583     0.08700
O2421       O  0.82236830  0.37974567  0.87016148    -0.40100
O2422       O  0.84855481  0.40072626  0.87212120    -0.39300
O2423       O  0.86895598  0.38901421  0.76970295    -0.39300
O2424       O  0.84262261  0.36804504  0.76709311    -0.37000
O2425       O  0.83695184  0.44603474  0.73894551    -0.37900
O2426       O  0.84216636  0.46724952  0.76432874    -0.34000
O2427       O  0.78167881  0.40583177  0.82697433    -0.35400
O2428       O  0.77986964  0.38293828  0.80262804    -0.39700
C2429       C  0.12908580  0.67235990  0.81373038    -0.13400
C2430       C  0.10741878  0.67012016  0.81404229     0.17000
C2431       C  0.09843743  0.65542104  0.82701894     0.03300
C2432       C  0.11118892  0.64242877  0.83854634    -0.11900
C2433       C  0.13322014  0.64286868  0.83692560    -0.03000
C2434       C  0.14201464  0.65946149  0.82535775     0.02500
C2435       C  0.09441753  0.68275841  0.80025167     0.09300
N2436       N  0.07629631  0.65307173  0.82831174     0.65700
H2437       H  0.10332275  0.63227339  0.84902087     0.18600
N2438       N  0.16380195  0.66437388  0.82610463     0.76200
H2439       H  0.13605111  0.68433557  0.80445033     0.10100
C2440       C  0.08314258  0.69989444  0.80754186     0.03800
C2441       C  0.06990449  0.71055533  0.79423585    -0.04900
C2442       C  0.06794264  0.70453295  0.77367443    -0.23300
C2443       C  0.07978089  0.68794526  0.76614469     0.13100
C2444       C  0.09289766  0.67712759  0.77947361    -0.12400
N2445       N  0.08515539  0.70682013  0.82828401     0.64700
H2446       H  0.06092301  0.72345356  0.79999566     0.12600
N2447       N  0.07807163  0.68162806  0.74517194     0.61400
H2448       H  0.10161581  0.66404828  0.77372650     0.08700
O2449       O  0.16965751  0.67889326  0.83763539    -0.40100
O2450       O  0.17563900  0.65882969  0.81163593    -0.39300
O2451       O  0.06731708  0.64046869  0.81649816    -0.39300
O2452       O  0.06687454  0.65928360  0.84417778    -0.37000
O2453       O  0.08925731  0.69009487  0.73167790    -0.37900
O2454       O  0.06346706  0.66978724  0.73976438    -0.34000
O2455       O  0.09802767  0.72093340  0.83232247    -0.35400
O2456       O  0.07069069  0.70310141  0.84088408    -0.39700
C2457       C  0.07368848  0.39662746  0.06767684    -0.13400
C2458       C  0.09519414  0.40068380  0.06897290     0.17000
C2459       C  0.10364020  0.41651787  0.05674817     0.03300
C2460       C  0.09043925  0.42871320  0.04473818    -0.11900
C2461       C  0.06891498  0.42477753  0.04344145    -0.03000
C2462       C  0.06062752  0.40815450  0.05475618     0.02500
C2463       C  0.10846620  0.38801794  0.08289226     0.09300
N2464       N  0.12569576  0.41917748  0.05471784     0.65700
H2465       H  0.09736372  0.44074513  0.03551192     0.18600
N2466       N  0.03913395  0.40252318  0.05316991     0.76200
H2467       H  0.06700377  0.38425064  0.07661921     0.10100
C2468       C  0.12029935  0.39689943  0.09881469     0.03800
C2469       C  0.13285990  0.38455856  0.11134064    -0.04900
C2470       C  0.13404671  0.36293933  0.10886781    -0.23300
C2471       C  0.12028006  0.35404648  0.09395284     0.13100
C2472       C  0.10834996  0.36659772  0.08093870    -0.12400
N2473       N  0.11840656  0.41824093  0.10370972     0.64700
H2474       H  0.14061275  0.39222481  0.12391323     0.12600
N2475       N  0.11829014  0.33227524  0.09149653     0.61400
H2476       H  0.09870620  0.35945699  0.06924815     0.08700
O2477       O  0.02678415  0.40704923  0.06758794    -0.40100
O2478       O  0.03378344  0.38912374  0.04014374    -0.39300
O2479       O  0.13552505  0.40751942  0.04258022    -0.39300
O2480       O  0.13378964  0.43611665  0.05979701    -0.37000
O2481       O  0.10378848  0.32320632  0.10094241    -0.37900
O2482       O  0.12582207  0.32384852  0.07565794    -0.34000
O2483       O  0.10266976  0.42426068  0.11371438    -0.35400
O2484       O  0.13439820  0.42953661  0.10307536    -0.39700
C2485       C  0.11104642  0.60682335  0.07883708    -0.13400
C2486       C  0.11252101  0.58551638  0.08080113     0.17000
C2487       C  0.12708673  0.57744331  0.09475235     0.03300
C2488       C  0.13792935  0.59056906  0.10803536    -0.11900
C2489       C  0.13417535  0.61198249  0.10854874    -0.03000
C2490       C  0.12223530  0.62007272  0.09180194     0.02500
C2491       C  0.09953236  0.57209847  0.06743338     0.09300
N2492       N  0.13102830  0.55587675  0.09580782     0.65700
H2493       H  0.14941228  0.58350629  0.11782195     0.18600
N2494       N  0.12179882  0.64149410  0.08697583     0.76200
H2495       H  0.10137135  0.61329356  0.06683527     0.10100
C2496       C  0.07754620  0.57354050  0.06745869     0.03800
C2497       C  0.06572441  0.56089400  0.05450001    -0.04900
C2498       C  0.07533173  0.54661988  0.04137468    -0.23300
C2499       C  0.09737431  0.54553221  0.04096542     0.13100
C2500       C  0.10920075  0.55822729  0.05393206    -0.12400
N2501       N  0.06692789  0.58750613  0.08083112     0.64700
H2502       H  0.04885571  0.56210475  0.05490568     0.12600
N2503       N  0.10807880  0.53264696  0.02662360     0.61400
H2504       H  0.12607280  0.55758945  0.05306719     0.08700
O2505       O  0.13454274  0.64801455  0.07372579    -0.40100
O2506       O  0.10512130  0.65142265  0.08971398    -0.39300
O2507       O  0.14735839  0.54872853  0.08763079    -0.39300
O2508       O  0.12127286  0.54517615  0.10876539    -0.37000
O2509       O  0.11371475  0.54002716  0.00960052    -0.37900
O2510       O  0.11625320  0.51615957  0.03280830    -0.34000
O2511       O  0.05932050  0.60381612  0.07356320    -0.35400
O2512       O  0.06100902  0.58139927  0.09825622    -0.39700
C2513       C  0.90464694  0.57824775  0.09891593    -0.13400
C2514       C  0.91690003  0.58882293  0.08465406     0.17000
C2515       C  0.91457040  0.61023850  0.08323652     0.03300
C2516       C  0.89988493  0.62033859  0.09557262    -0.11900
C2517       C  0.88664932  0.60989709  0.10964417    -0.03000
C2518       C  0.88949778  0.58804506  0.11100230     0.02500
C2519       C  0.92965071  0.57639685  0.06999296     0.09300
N2520       N  0.92604063  0.62204882  0.06864103     0.65700
H2521       H  0.89874971  0.63686739  0.09405614     0.18600
N2522       N  0.87752734  0.57488898  0.12399259     0.76200
H2523       H  0.90632271  0.56172020  0.10018108     0.10100
C2524       C  0.95142208  0.57877325  0.06733231     0.03800
C2525       C  0.96227152  0.56555508  0.05397708    -0.04900
C2526       C  0.95207965  0.54946161  0.04358681    -0.23300
C2527       C  0.93036607  0.54699766  0.04649451     0.13100
C2528       C  0.91946252  0.56056722  0.05925490    -0.12400
N2529       N  0.96306278  0.59359940  0.07880630     0.64700
H2530       H  0.97895999  0.56759083  0.05218118     0.12600
N2531       N  0.91896447  0.53090338  0.03661859     0.61400
H2532       H  0.90277047  0.55847890  0.06106052     0.08700
O2533       O  0.88662411  0.56641134  0.13893393    -0.40100
O2534       O  0.86141261  0.56639358  0.11675964    -0.39300
O2535       O  0.91902926  0.62359919  0.05060718    -0.39300
O2536       O  0.93873016  0.63541466  0.07511437    -0.37000
O2537       O  0.91557647  0.51444613  0.04624944    -0.37900
O2538       O  0.90815994  0.53497619  0.02095132    -0.34000
O2539       O  0.96910551  0.58903122  0.09666078    -0.35400
O2540       O  0.97237497  0.60775159  0.06928157    -0.39700
C2541       C  0.94160537  0.40924009  0.89540912    -0.13400
C2542       C  0.92010670  0.41233046  0.89728311     0.17000
C2543       C  0.91249988  0.42645964  0.91188003     0.03300
C2544       C  0.92651788  0.43723652  0.92428470    -0.11900
C2545       C  0.94810067  0.43386245  0.92270514    -0.03000
C2546       C  0.95557549  0.41981552  0.90799159     0.02500
C2547       C  0.90608515  0.39917102  0.88514389     0.09300
N2548       N  0.89063631  0.42989870  0.91443938     0.65700
H2549       H  0.92038120  0.44788165  0.93560426     0.18600
N2550       N  0.97728487  0.41644214  0.90513231     0.76200
H2551       H  0.94758403  0.39812615  0.88445403     0.10100
C2552       C  0.90666388  0.39915184  0.86365751     0.03800
C2553       C  0.89511475  0.38466312  0.85277569    -0.04900
C2554       C  0.88295152  0.36940588  0.86265205    -0.23300
C2555       C  0.88138365  0.37064621  0.88469501     0.13100
C2556       C  0.89342658  0.38510402  0.89536494    -0.12400
N2557       N  0.91909232  0.41364246  0.85260777     0.64700
H2558       H  0.89630559  0.38485180  0.83617108     0.12600
N2559       N  0.86698991  0.35901044  0.89689362     0.61400
H2560       H  0.89282586  0.38536776  0.91200325     0.08700
O2561       O  0.98603813  0.42480412  0.88996675    -0.40100
O2562       O  0.98542591  0.40071377  0.91304896    -0.39300
O2563       O  0.88133111  0.42184347  0.92948115    -0.39300
O2564       O  0.88212728  0.44463868  0.90510865    -0.37000
O2565       O  0.87418617  0.34797170  0.91111877    -0.37900
O2566       O  0.84863591  0.36564413  0.89898333    -0.34000
O2567       O  0.93628518  0.40803843  0.84496369    -0.35400
O2568       O  0.91090252  0.43020704  0.84666429    -0.39700
C2569       C  0.10716553  0.58461001  0.86597110    -0.13400
C2570       C  0.11028755  0.58401144  0.88711744     0.17000
C2571       C  0.12640418  0.59574239  0.89573247     0.03300
C2572       C  0.13825931  0.60879417  0.88332469    -0.11900
C2573       C  0.13412651  0.61132161  0.86203554    -0.03000
C2574       C  0.11926871  0.59729283  0.85333614     0.02500
C2575       C  0.09731328  0.57014911  0.89975767     0.09300
N2576       N  0.13082586  0.59476904  0.91721028     0.65700
H2577       H  0.15091214  0.61673541  0.89086167     0.18600
N2578       N  0.11647365  0.59491565  0.83172148     0.76200
H2579       H  0.09556313  0.57461975  0.85906530     0.10100
C2580       C  0.07607284  0.57433638  0.90326677     0.03800
C2581       C  0.06425964  0.56122397  0.91564353    -0.04900
C2582       C  0.07316329  0.54366854  0.92457631    -0.23300
C2583       C  0.09430629  0.53897906  0.92019894     0.13100
C2584       C  0.10616709  0.55231955  0.90799995    -0.12400
N2585       N  0.06645887  0.59226572  0.89494508     0.64700
H2586       H  0.04806881  0.56506996  0.91854824     0.12600
N2587       N  0.10417898  0.52106864  0.92828291     0.61400
H2588       H  0.12241173  0.54877033  0.90497093     0.08700
O2589       O  0.09922867  0.60021366  0.82399504    -0.40100
O2590       O  0.12686324  0.58107144  0.82274281    -0.39300
O2591       O  0.14638666  0.58461946  0.92334177    -0.39300
O2592       O  0.12211337  0.60732153  0.92927311    -0.37000
O2593       O  0.10544207  0.50513237  0.91726430    -0.37900
O2594       O  0.11555772  0.52265566  0.94402549    -0.34000
O2595       O  0.05513250  0.59067445  0.87916750    -0.35400
O2596       O  0.06568382  0.60846415  0.90560837    -0.39700
C2597       C  0.12069864  0.40415312  0.86694993    -0.13400
C2598       C  0.10555749  0.39492443  0.87914508     0.17000
C2599       C  0.10163248  0.37389706  0.87613362     0.03300
C2600       C  0.11445197  0.36249829  0.86296982    -0.11900
C2601       C  0.13286412  0.37048461  0.85406272    -0.03000
C2602       C  0.13357893  0.39276037  0.85373134     0.02500
C2603       C  0.09261961  0.40802502  0.89294493     0.09300
N2604       N  0.08479903  0.36369234  0.88633353     0.65700
H2605       H  0.10943356  0.34712148  0.85940285     0.18600
N2606       N  0.14409258  0.40486172  0.83852664     0.76200
H2607       H  0.12160597  0.42076588  0.86660434     0.10100
C2608       C  0.10174605  0.42243209  0.90653820     0.03800
C2609       C  0.08912763  0.43396077  0.91976017    -0.04900
C2610       C  0.06739412  0.43140095  0.91998853    -0.23300
C2611       C  0.05825871  0.41798100  0.90558665     0.13100
C2612       C  0.07080342  0.40670646  0.89207283    -0.12400
N2613       N  0.12384758  0.42512011  0.90767011     0.64700
H2614       H  0.09656407  0.44442691  0.93046920     0.12600
N2615       N  0.03624391  0.41625468  0.90372156     0.61400
H2616       H  0.06334438  0.39696661  0.88073452     0.08700
O2617       O  0.15581969  0.41918058  0.84469216    -0.40100
O2618       O  0.13562138  0.40704836  0.82121483    -0.39300
O2619       O  0.07018919  0.35587217  0.87591617    -0.39300
O2620       O  0.08612165  0.35979271  0.90526108    -0.37000
O2621       O  0.02723349  0.42677070  0.89013049    -0.37900
O2622       O  0.02746110  0.40032735  0.91050291    -0.34000
O2623       O  0.13196689  0.44103417  0.90005128    -0.35400
O2624       O  0.13419934  0.41457571  0.92029545    -0.39700
C2625       C  0.91245893  0.41712685  0.05428009    -0.13400
C2626       C  0.92203974  0.40288498  0.06739870     0.17000
C2627       C  0.94404002  0.40136569  0.06731063     0.03300
C2628       C  0.95589588  0.41390101  0.05431518    -0.11900
C2629       C  0.94634974  0.42825786  0.04134347    -0.03000
C2630       C  0.92432967  0.42981390  0.04139528     0.02500
C2631       C  0.90887190  0.38886540  0.08002475     0.09300
N2632       N  0.95465542  0.38736933  0.08054935     0.65700
H2633       H  0.97275225  0.41248310  0.05451422     0.18600
N2634       N  0.91365740  0.44313563  0.02751417     0.76200
H2635       H  0.89559352  0.41794987  0.05349732     0.10100
C2636       C  0.89335413  0.39631748  0.09340709     0.03800
C2637       C  0.88131652  0.38263352  0.10496818    -0.04900
C2638       C  0.88444389  0.36106470  0.10416296    -0.23300
C2639       C  0.89901708  0.35375063  0.08913276     0.13100
C2640       C  0.91107095  0.36759837  0.07769408    -0.12400
N2641       N  0.88963721  0.41785212  0.09566446     0.64700
H2642       H  0.86906629  0.38939322  0.11411015     0.12600
N2643       N  0.90204123  0.33229278  0.08526544     0.61400
H2644       H  0.92208684  0.36158808  0.06656780     0.08700
O2645       O  0.90556635  0.45950685  0.03421726    -0.40100
O2646       O  0.90836992  0.43643949  0.01006164    -0.39300
O2647       O  0.96292779  0.37144782  0.07301557    -0.39300
O2648       O  0.95992263  0.39322986  0.09829625    -0.37000
O2649       O  0.89213198  0.32404095  0.07066130    -0.37900
O2650       O  0.91866435  0.32387254  0.09133709    -0.34000
O2651       O  0.87348195  0.42561682  0.08777155    -0.35400
O2652       O  0.89934876  0.42772964  0.10935509    -0.39700
C2653       C  0.85140019  0.65729065  0.89348374    -0.13400
C2654       C  0.83758452  0.66973394  0.88253400     0.17000
C2655       C  0.83974172  0.67110001  0.86116392     0.03300
C2656       C  0.85439562  0.65877479  0.85101820    -0.11900
C2657       C  0.86675390  0.64403789  0.86148980    -0.03000
C2658       C  0.86647002  0.64512935  0.88357732     0.02500
C2659       C  0.82184423  0.68173207  0.89421843     0.09300
N2660       N  0.82640194  0.68404396  0.84933663     0.65700
H2661       H  0.85488956  0.65957604  0.83440919     0.18600
N2662       N  0.88190683  0.63583020  0.89656769     0.76200
H2663       H  0.85084610  0.65747360  0.91013130     0.10100
C2664       C  0.80527126  0.67167789  0.90431104     0.03800
C2665       C  0.79341238  0.68218059  0.91906562    -0.04900
C2666       C  0.79753782  0.70281190  0.92362381    -0.23300
C2667       C  0.81301537  0.71333930  0.91243419     0.13100
C2668       C  0.82519044  0.70272730  0.89794403    -0.12400
N2669       N  0.80045694  0.65072359  0.89979833     0.64700
H2670       H  0.78117484  0.67414078  0.92725059     0.12600
N2671       N  0.81698689  0.73460171  0.91628644     0.61400
H2672       H  0.83787503  0.71062442  0.89029309     0.08700
O2673       O  0.87596140  0.62356557  0.91034840    -0.40100
O2674       O  0.89885310  0.64521505  0.89950604    -0.39300
O2675       O  0.83348026  0.70074864  0.84246250    -0.39300
O2676       O  0.81003773  0.67655737  0.84154858    -0.37000
O2677       O  0.82735552  0.73989245  0.93190671    -0.37900
O2678       O  0.80729255  0.74804102  0.90613709    -0.34000
O2679       O  0.80485751  0.63696164  0.91268577    -0.35400
O2680       O  0.78822539  0.64661262  0.88516103    -0.39700
C2681       C  0.92086420  0.66761895  0.82707591    -0.13400
C2682       C  0.91701009  0.66781586  0.80596711     0.17000
C2683       C  0.90067120  0.65548813  0.79832470     0.03300
C2684       C  0.88903437  0.64318545  0.81170055    -0.11900
C2685       C  0.89301023  0.64238605  0.83316588    -0.03000
C2686       C  0.90851907  0.65629633  0.84065749     0.02500
C2687       C  0.93074413  0.68035772  0.79234547     0.09300
N2688       N  0.89512803  0.65561436  0.77705165     0.65700
H2689       H  0.87634004  0.63477686  0.80476383     0.18600
N2690       N  0.91183537  0.65991505  0.86201928     0.76200
H2691       H  0.93360320  0.67654841  0.83335101     0.10100
C2692       C  0.93669914  0.70073208  0.79750096     0.03800
C2693       C  0.95140356  0.71108060  0.78548250    -0.04900
C2694       C  0.95988072  0.70190967  0.76791483    -0.23300
C2695       C  0.95353889  0.68197368  0.76229262     0.13100
C2696       C  0.93948186  0.67124028  0.77472165    -0.12400
N2697       N  0.92788471  0.71130492  0.81472576     0.64700
H2698       H  0.95622249  0.72644826  0.78984951     0.12600
N2699       N  0.96157329  0.67229688  0.74421419     0.61400
H2700       H  0.93588742  0.65547274  0.77081226     0.08700
O2701       O  0.90251516  0.67498487  0.87010999    -0.40100
O2702       O  0.92883122  0.65407965  0.86989810    -0.39300
O2703       O  0.89889114  0.63994446  0.76619667    -0.39300
O2704       O  0.88197725  0.66857375  0.77077226    -0.37000
O2705       O  0.95127340  0.67327999  0.72773381    -0.37900
O2706       O  0.97609402  0.65930305  0.74575943    -0.34000
O2707       O  0.93925873  0.71521558  0.83008115    -0.35400
O2708       O  0.91113242  0.72120085  0.81237190    -0.39700
C2709       C  0.85924179  0.58706139  0.80854344    -0.13400
C2710       C  0.83784791  0.59129382  0.80736558     0.17000
C2711       C  0.82962335  0.60667692  0.82030100     0.03300
C2712       C  0.84257692  0.61709429  0.83414300    -0.11900
C2713       C  0.86453312  0.61445527  0.83426997    -0.03000
C2714       C  0.87258433  0.59838023  0.82141616     0.02500
C2715       C  0.82404475  0.57763407  0.79481268     0.09300
N2716       N  0.80815869  0.61257580  0.81911264     0.65700
H2717       H  0.83478673  0.62724580  0.84471338     0.18600
N2718       N  0.89405621  0.59233083  0.82205816     0.76200
H2719       H  0.86570221  0.57444497  0.79972616     0.10100
C2720       C  0.82856526  0.57248012  0.77413550     0.03800
C2721       C  0.81646876  0.55771896  0.76385644    -0.04900
C2722       C  0.79924535  0.54851111  0.77340989    -0.23300
C2723       C  0.79422594  0.55418177  0.79374547     0.13100
C2724       C  0.80685377  0.56820676  0.80433540    -0.12400
N2725       N  0.84496916  0.58243510  0.76311438     0.64700
H2726       H  0.82042182  0.55353876  0.74820255     0.12600
N2727       N  0.77657348  0.54554104  0.80400905     0.61400
H2728       H  0.80339796  0.57137940  0.82030892     0.08700
O2729       O  0.89878089  0.57513121  0.82965541    -0.40100
O2730       O  0.90731261  0.60160663  0.81116986    -0.39300
O2731       O  0.79618922  0.60888493  0.83404944    -0.39300
O2732       O  0.80282449  0.62589512  0.80609298    -0.37000
O2733       O  0.77936694  0.53190176  0.81745693    -0.37900
O2734       O  0.75934452  0.55490126  0.80341136    -0.34000
O2735       O  0.86158871  0.57269185  0.75944026    -0.35400
O2736       O  0.84066357  0.59801332  0.75244230    -0.39700
C2737       C  0.89505523  0.58512250  0.88603604    -0.13400
C2738       C  0.91682579  0.58640279  0.88572322     0.17000
C2739       C  0.92651385  0.59964821  0.87172568     0.03300
C2740       C  0.91442110  0.61238979  0.85932713    -0.11900
C2741       C  0.89240963  0.61310770  0.86089252    -0.03000
C2742       C  0.88277252  0.59784395  0.87356259     0.02500
C2743       C  0.92931362  0.57300067  0.89924050     0.09300
N2744       N  0.94865292  0.59947054  0.86897279     0.65700
H2745       H  0.92273727  0.62106910  0.84790291     0.18600
N2746       N  0.86072020  0.59411522  0.87317437     0.76200
H2747       H  0.88750693  0.57402869  0.89594836     0.10100
C2748       C  0.94093460  0.58120461  0.91569243     0.03800
C2749       C  0.95350359  0.56830070  0.92750840    -0.04900
C2750       C  0.95413695  0.54709910  0.92375218    -0.23300
C2751       C  0.94205093  0.53876827  0.90762218     0.13100
C2752       C  0.92992167  0.55181023  0.89537372    -0.12400
N2753       N  0.93910247  0.60233694  0.92142720     0.64700
H2754       H  0.96212729  0.57480756  0.94029112     0.12600
N2755       N  0.94248052  0.51729750  0.90301506     0.61400
H2756       H  0.92102675  0.54540978  0.88271980     0.08700
O2757       O  0.85394184  0.57932459  0.86251617    -0.40100
O2758       O  0.84933736  0.60110942  0.88737249    -0.39300
O2759       O  0.95647706  0.58769757  0.85560211    -0.39300
O2760       O  0.95935059  0.61430371  0.87569930    -0.37000
O2761       O  0.92781668  0.50597398  0.90924577    -0.37900
O2762       O  0.95440114  0.51081556  0.88898977    -0.34000
O2763       O  0.92454469  0.60765882  0.93337047    -0.35400
O2764       O  0.95455438  0.61412394  0.91916002    -0.39700
C2765       C  0.17212952  0.59787729  0.80124958    -0.13400
C2766       C  0.18496080  0.58374685  0.81134838     0.17000
C2767       C  0.18562509  0.58424539  0.83293942     0.03300
C2768       C  0.17351922  0.59847452  0.84380815    -0.11900
C2769       C  0.16039557  0.61302635  0.83404358    -0.03000
C2770       C  0.15949321  0.61198815  0.81194960     0.02500
C2771       C  0.19775210  0.56896381  0.79900288     0.09300
N2772       N  0.19810429  0.57004750  0.84427049     0.65700
H2773       H  0.17443850  0.59814778  0.86041973     0.18600
N2774       N  0.14509382  0.62350458  0.79966366     0.76200
H2775       H  0.17157702  0.59776350  0.78462461     0.10100
C2776       C  0.18869309  0.55613303  0.78383283     0.03800
C2777       C  0.20130264  0.54299703  0.77206925    -0.04900
C2778       C  0.22294846  0.54218243  0.77505758    -0.23300
C2779       C  0.23207238  0.55497780  0.79008730     0.13100
C2780       C  0.21950823  0.56828739  0.80177239    -0.12400
N2781       N  0.16663608  0.55570880  0.78058706     0.64700
H2782       H  0.19409753  0.53308327  0.76069411     0.12600
N2783       N  0.25399292  0.55429113  0.79398912     0.61400
H2784       H  0.22684965  0.57826770  0.81297837     0.08700
O2785       O  0.12724128  0.61607443  0.79633041    -0.40100
O2786       O  0.15232854  0.63583635  0.78655760    -0.39300
O2787       O  0.21473015  0.57628553  0.85260796    -0.39300
O2788       O  0.18996987  0.55351295  0.85039176    -0.37000
O2789       O  0.26085397  0.54267224  0.80791243    -0.37900
O2790       O  0.26558684  0.56826446  0.78695027    -0.34000
O2791       O  0.15911799  0.56449511  0.76500402    -0.35400
O2792       O  0.15579679  0.54248243  0.78986549    -0.39700
C2793       C  0.19229945  0.41830298  0.78310404    -0.13400
C2794       C  0.20485971  0.40489339  0.79454187     0.17000
C2795       C  0.22673409  0.40632796  0.79291493     0.03300
C2796       C  0.23564653  0.42163415  0.78064759    -0.11900
C2797       C  0.22311226  0.43526986  0.76944296    -0.03000
C2798       C  0.20120770  0.43331397  0.77047021     0.02500
C2799       C  0.19440049  0.38969601  0.80789715     0.09300
N2800       N  0.24009031  0.39194163  0.80292727     0.65700
H2801       H  0.25249534  0.42286086  0.77977360     0.18600
N2802       N  0.18785749  0.44616356  0.75851308     0.76200
H2803       H  0.17544508  0.41708544  0.78401143     0.10100
C2804       C  0.19264873  0.39269537  0.82920154     0.03800
C2805       C  0.17823990  0.38104006  0.84037131    -0.04900
C2806       C  0.16571723  0.36574871  0.83091794    -0.23300
C2807       C  0.17185293  0.35970521  0.81069627     0.13100
C2808       C  0.18453896  0.37273284  0.79894892    -0.12400
N2809       N  0.20556590  0.40716567  0.83979609     0.64700
H2810       H  0.17652446  0.38409315  0.85666569     0.12600
N2811       N  0.16848652  0.33928307  0.80317789     0.61400
H2812       H  0.18764227  0.36900739  0.78300239     0.08700
O2813       O  0.17884574  0.46121622  0.76695348    -0.40100
O2814       O  0.18135949  0.43975462  0.74135553    -0.39300
O2815       O  0.24414439  0.37515554  0.79404472    -0.39300
O2816       O  0.25190239  0.39808949  0.81717904    -0.37000
O2817       O  0.17690112  0.32440366  0.81241363    -0.37900
O2818       O  0.16098045  0.33645796  0.78547505    -0.34000
O2819       O  0.19846503  0.42468608  0.84426076    -0.35400
O2820       O  0.22157784  0.40073187  0.84903550    -0.39700
C2821       C  0.83101193  0.54900809  0.17972601    -0.13400
C2822       C  0.81979166  0.56611922  0.17242915     0.17000
C2823       C  0.79789635  0.56638093  0.17591433     0.03300
C2824       C  0.78822512  0.55018946  0.18650375    -0.11900
C2825       C  0.79981641  0.53419935  0.19541048    -0.03000
C2826       C  0.82159622  0.53374480  0.19177997     0.02500
C2827       C  0.83134810  0.58278280  0.16088624     0.09300
N2828       N  0.78515454  0.58329390  0.16979936     0.65700
H2829       H  0.77143965  0.55060157  0.18854107     0.18600
N2830       N  0.83460664  0.51823665  0.20057733     0.76200
H2831       H  0.84744216  0.54744440  0.17628738     0.10100
C2832       C  0.85162847  0.58910330  0.16666908     0.03800
C2833       C  0.86333907  0.60187044  0.15380337    -0.04900
C2834       C  0.85521957  0.61064299  0.13556438    -0.23300
C2835       C  0.83343081  0.60706812  0.13192004     0.13100
C2836       C  0.82265881  0.59202912  0.14336501    -0.12400
N2837       N  0.86054552  0.58336503  0.18595703     0.64700
H2838       H  0.87935638  0.60475535  0.15824578     0.12600
N2839       N  0.82110074  0.61944488  0.11842218     0.61400
H2840       H  0.80708613  0.58798855  0.13851803     0.08700
O2841       O  0.84301592  0.50506419  0.18895763    -0.40100
O2842       O  0.84221739  0.52123481  0.21820289    -0.39300
O2843       O  0.77201763  0.58072045  0.15557199    -0.39300
O2844       O  0.78285275  0.59820352  0.18201873    -0.37000
O2845       O  0.81483442  0.63663507  0.12494134    -0.37900
O2846       O  0.81070669  0.61079780  0.10437070    -0.34000
O2847       O  0.87670167  0.57227108  0.18621439    -0.35400
O2848       O  0.85594767  0.59371541  0.20173942    -0.39700
C2849       C  0.82397153  0.36894301  0.14865860    -0.13400
C2850       C  0.83412302  0.38370423  0.16070494     0.17000
C2851       C  0.85606306  0.38413893  0.16075072     0.03300
C2852       C  0.86717375  0.37111452  0.14769725    -0.11900
C2853       C  0.85720067  0.35768825  0.13361519    -0.03000
C2854       C  0.83490347  0.35578013  0.13539917     0.02500
C2855       C  0.82142055  0.39822482  0.17319534     0.09300
N2856       N  0.86745363  0.39828441  0.17329320     0.65700
H2857       H  0.88403814  0.37239725  0.14772338     0.18600
N2858       N  0.82280721  0.34002060  0.12553144     0.76200
H2859       H  0.80718514  0.36730522  0.14985351     0.10100
C2860       C  0.80479405  0.40936128  0.16431225     0.03800
C2861       C  0.79289008  0.42271375  0.17638194    -0.04900
C2862       C  0.79803552  0.42635720  0.19697510    -0.23300
C2863       C  0.81407042  0.41468372  0.20614778     0.13100
C2864       C  0.82541486  0.40057814  0.19428437    -0.12400
N2865       N  0.80058133  0.40826361  0.14278172     0.64700
H2866       H  0.78025042  0.43122113  0.16933320     0.12600
N2867       N  0.81890652  0.41684762  0.22747852     0.61400
H2868       H  0.83739245  0.39144711  0.20161507     0.08700
O2869       O  0.82110878  0.32285396  0.13425607    -0.40100
O2870       O  0.80836324  0.34529762  0.11348062    -0.39300
O2871       O  0.87705201  0.39166735  0.18885269    -0.39300
O2872       O  0.87229400  0.41560142  0.16607288    -0.37000
O2873       O  0.81121620  0.40431143  0.24014113    -0.37900
O2874       O  0.83438741  0.42759876  0.23278595    -0.34000
O2875       O  0.78435528  0.39918961  0.13655983    -0.35400
O2876       O  0.81027552  0.42002555  0.13072399    -0.39700
C2877       C  0.09896471  0.15746067  0.64646649    -0.13400
C2878       C  0.10820469  0.17152131  0.65988500     0.17000
C2879       C  0.13002346  0.17110064  0.66223167     0.03300
C2880       C  0.14211235  0.15769187  0.65022269    -0.11900
C2881       C  0.13320749  0.14405949  0.63557854    -0.03000
C2882       C  0.11075422  0.14413310  0.63414317     0.02500
C2883       C  0.09441813  0.18602132  0.67138138     0.09300
N2884       N  0.14033115  0.18478386  0.67609395     0.65700
H2885       H  0.15892864  0.15829554  0.65195161     0.18600
N2886       N  0.09902402  0.13196030  0.61992945     0.76200
H2887       H  0.08210570  0.15710430  0.64512261     0.10100
C2888       C  0.07954262  0.19832599  0.66105980     0.03800
C2889       C  0.06460992  0.20938231  0.67226088    -0.04900
C2890       C  0.06406901  0.20853280  0.69373637    -0.23300
C2891       C  0.07949041  0.19705527  0.70413932     0.13100
C2892       C  0.09440100  0.18587016  0.69293664    -0.12400
N2893       N  0.07927673  0.19967932  0.63915661     0.64700
H2894       H  0.05309566  0.21843626  0.66412179     0.12600
N2895       N  0.07957319  0.19575209  0.72603783     0.61400
H2896       H  0.10537790  0.17626281  0.70113405     0.08700
O2897       O  0.08715318  0.11819118  0.62695637    -0.40100
O2898       O  0.09513088  0.13911593  0.60236424    -0.39300
O2899       O  0.14736084  0.17791691  0.69282303    -0.39300
O2900       O  0.14669579  0.20192002  0.66962061    -0.37000
O2901       O  0.06977732  0.18136436  0.73468872    -0.37900
O2902       O  0.09296529  0.20578845  0.73612846    -0.34000
O2903       O  0.06483184  0.19094902  0.62925490    -0.35400
O2904       O  0.08992166  0.21345710  0.63048618    -0.39700
C2905       C  0.91690778  0.16453379  0.63931537    -0.13400
C2906       C  0.91431381  0.16307283  0.66058812     0.17000
C2907       C  0.89990207  0.14869629  0.66824007     0.03300
C2908       C  0.88919357  0.13572184  0.65468257    -0.11900
C2909       C  0.89016957  0.13815801  0.63304016    -0.03000
C2910       C  0.90495908  0.15286263  0.62562454     0.02500
C2911       C  0.92686383  0.17697931  0.67400372     0.09300
N2912       N  0.89433554  0.14824907  0.68950581     0.65700
H2913       H  0.87965521  0.12413772  0.66178091     0.18600
N2914       N  0.90809214  0.15663621  0.60423610     0.76200
H2915       H  0.92820335  0.17524074  0.63308866     0.10100
C2916       C  0.93899251  0.16970286  0.69062697     0.03800
C2917       C  0.95189320  0.18327382  0.70141960    -0.04900
C2918       C  0.95438675  0.20363845  0.69506681    -0.23300
C2919       C  0.94218027  0.21110084  0.67871727     0.13100
C2920       C  0.92819420  0.19790515  0.66874230    -0.12400
N2921       N  0.94027714  0.14835340  0.69546997     0.64700
H2922       H  0.96132779  0.17747523  0.71395002     0.12600
N2923       N  0.94441275  0.23169509  0.67148485     0.61400
H2924       H  0.91897433  0.20385589  0.65613655     0.08700
O2925       O  0.92352940  0.14831560  0.59549616    -0.40100
O2926       O  0.90095121  0.17307244  0.59677807    -0.39300
O2927       O  0.88281038  0.16234363  0.69651096    -0.39300
O2928       O  0.89556241  0.13153668  0.69920317    -0.37000
O2929       O  0.95710986  0.23531189  0.65712737    -0.37900
O2930       O  0.93035957  0.24468835  0.67548315    -0.34000
O2931       O  0.95122592  0.13682502  0.68417569    -0.35400
O2932       O  0.93607217  0.14261046  0.71350252    -0.39700
C2933       C  0.92098763  0.32690738  0.82364945    -0.13400
C2934       C  0.91149229  0.31421815  0.80907905     0.17000
C2935       C  0.88962739  0.31411042  0.80777493     0.03300
C2936       C  0.87779219  0.32680501  0.82072361    -0.11900
C2937       C  0.88700379  0.34070338  0.83493531    -0.03000
C2938       C  0.90944660  0.33986327  0.83664692     0.02500
C2939       C  0.92493997  0.30046096  0.79639783     0.09300
N2940       N  0.87914506  0.30187476  0.79273733     0.65700
H2941       H  0.86096335  0.32635644  0.81911939     0.18600
N2942       N  0.92129895  0.35041241  0.85206737     0.76200
H2943       H  0.93779604  0.32625349  0.82548389     0.10100
C2944       C  0.94118249  0.30857463  0.78424613     0.03800
C2945       C  0.95531797  0.29542572  0.77448161    -0.04900
C2946       C  0.95375235  0.27406364  0.77644810    -0.23300
C2947       C  0.93735794  0.26577799  0.78837444     0.13100
C2948       C  0.92310753  0.27901711  0.79819757    -0.12400
N2949       N  0.94338837  0.33021344  0.78144146     0.64700
H2950       H  0.96763460  0.30196880  0.76513986     0.12600
N2951       N  0.93538993  0.24411374  0.79126016     0.61400
H2952       H  0.91101228  0.27254847  0.80785032     0.08700
O2953       O  0.93478805  0.36328381  0.84628690    -0.40100
O2954       O  0.92394018  0.34190923  0.86923740    -0.39300
O2955       O  0.86830442  0.28674754  0.79843117    -0.39300
O2956       O  0.87678745  0.30887179  0.77483651    -0.37000
O2957       O  0.94407830  0.23588087  0.80655046    -0.37900
O2958       O  0.92113199  0.23448535  0.78194912    -0.34000
O2959       O  0.95811871  0.33958076  0.79029078    -0.35400
O2960       O  0.93396372  0.33877128  0.76676740    -0.39700
C2961       C  0.10830438  0.33543222  0.80341855    -0.13400
C2962       C  0.10644719  0.31455835  0.80779797     0.17000
C2963       C  0.12066511  0.30599816  0.82202058     0.03300
C2964       C  0.13534548  0.31857130  0.83191967    -0.11900
C2965       C  0.13521699  0.34019086  0.82985979    -0.03000
C2966       C  0.12162591  0.34827515  0.81452048     0.02500
C2967       C  0.09045328  0.30217729  0.79641318     0.09300
N2968       N  0.12017160  0.28469494  0.82725664     0.65700
H2969       H  0.14655689  0.31095576  0.84160131     0.18600
N2970       N  0.12079656  0.36954510  0.80964671     0.76200
H2971       H  0.09920016  0.34213255  0.79116888     0.10100
C2972       C  0.07016674  0.30990956  0.79217175     0.03800
C2973       C  0.05622650  0.29835866  0.78032944    -0.04900
C2974       C  0.06112741  0.27837822  0.77387558    -0.23300
C2975       C  0.08109435  0.27040393  0.77855035     0.13100
C2976       C  0.09575068  0.28268759  0.78871352    -0.12400
N2977       N  0.06296932  0.32903497  0.80041761     0.64700
H2978       H  0.04107013  0.30482798  0.77675613     0.12600
N2979       N  0.08653836  0.24960046  0.77391018     0.61400
H2980       H  0.11133333  0.27667486  0.79070884     0.08700
O2981       O  0.13136008  0.37575976  0.79452658    -0.40100
O2982       O  0.10451506  0.37934747  0.81453460    -0.39300
O2983       O  0.13560393  0.27345104  0.82286978    -0.39300
O2984       O  0.10681021  0.27836184  0.83998855    -0.37000
O2985       O  0.08077784  0.23560867  0.78601271    -0.37900
O2986       O  0.10128466  0.24602022  0.76154579    -0.34000
O2987       O  0.05961274  0.34384736  0.78839511    -0.35400
O2988       O  0.05470671  0.32926448  0.81800900    -0.39700
C2989       C  0.71623004  0.16249676  0.04775739    -0.13400
C2990       C  0.70151474  0.17265929  0.06013433     0.17000
C2991       C  0.70014772  0.19434010  0.05906257     0.03300
C2992       C  0.71270737  0.20515791  0.04517481    -0.11900
C2993       C  0.72667928  0.19477367  0.03226347    -0.03000
C2994       C  0.72852347  0.17329214  0.03371791     0.02500
C2995       C  0.68821673  0.16038212  0.07431547     0.09300
N2996       N  0.68566047  0.20557432  0.07144396     0.65700
H2997       H  0.71113319  0.22169046  0.04402957     0.18600
N2998       N  0.74263996  0.16221549  0.02080667     0.76200
H2999       H  0.71823422  0.14603665  0.04897390     0.10100
C3000       C  0.67698851  0.14303934  0.06749964     0.03800
C3001       C  0.66517843  0.13152296  0.08139265    -0.04900
C3002       C  0.66341590  0.13698795  0.10234566    -0.23300
C3003       C  0.67619025  0.15367344  0.10927846     0.13100
C3004       C  0.68799228  0.16514187  0.09526438    -0.12400
N3005       N  0.67719775  0.13688396  0.04640075     0.64700
H3006       H  0.65759108  0.11794379  0.07542092     0.12600
N3007       N  0.67793081  0.15915087  0.13051224     0.61400
H3008       H  0.69758090  0.17760709  0.10099853     0.08700
O3009       O  0.76086163  0.15848843  0.02711699    -0.40100
O3010       O  0.73569927  0.15269163  0.00533823    -0.39300
O3011       O  0.69233905  0.21587763  0.08652551    -0.39300
O3012       O  0.66765824  0.20922949  0.06451010    -0.37000
O3013       O  0.69372287  0.15297328  0.14028666    -0.37900
O3014       O  0.66877935  0.17514183  0.13680985    -0.34000
O3015       O  0.68699003  0.12086229  0.04121792    -0.35400
O3016       O  0.66394626  0.14440322  0.03422896    -0.39700
C3017       C  0.69055627  0.15977046  0.86344124    -0.13400
C3018       C  0.68730658  0.15813058  0.88456198     0.17000
C3019       C  0.67128690  0.14558790  0.89202451     0.03300
C3020       C  0.65945802  0.13392392  0.87838223    -0.11900
C3021       C  0.66275016  0.13473173  0.85685580    -0.03000
C3022       C  0.67825640  0.14870194  0.84952859     0.02500
C3023       C  0.69975543  0.17081036  0.89861818     0.09300
N3024       N  0.66530456  0.14624484  0.91317852     0.65700
H3025       H  0.64646506  0.12576917  0.88500278     0.18600
N3026       N  0.68131150  0.15246353  0.82806873     0.76200
H3027       H  0.70244357  0.17011005  0.85768139     0.10100
C3028       C  0.71557178  0.16210670  0.91078453     0.03800
C3029       C  0.72657664  0.17449384  0.92456029    -0.04900
C3030       C  0.72204403  0.19547599  0.92626544    -0.23300
C3031       C  0.70643742  0.20424209  0.91384724     0.13100
C3032       C  0.69540098  0.19183464  0.90008969    -0.12400
N3033       N  0.72086109  0.14085395  0.90899150     0.64700
H3034       H  0.73872274  0.16776400  0.93397244     0.12600
N3035       N  0.70135325  0.22554862  0.91539814     0.61400
H3036       H  0.68318338  0.19852775  0.89073935     0.08700
O3037       O  0.69619394  0.14372812  0.81883324    -0.40100
O3038       O  0.67367148  0.16856541  0.82038172    -0.39300
O3039       O  0.65193819  0.15930560  0.91890160    -0.39300
O3040       O  0.66905307  0.13101031  0.92451227    -0.37000
O3041       O  0.68656873  0.23110822  0.92694984    -0.37900
O3042       O  0.70831526  0.23788513  0.90215208    -0.34000
O3043       O  0.73512677  0.13546847  0.89674365    -0.35400
O3044       O  0.71462857  0.12838775  0.92245822    -0.39700
C3045       C  0.83593953  0.32725758  0.07387647    -0.13400
C3046       C  0.83698432  0.30589242  0.07564671     0.17000
C3047       C  0.85019385  0.29742721  0.09069434     0.03300
C3048       C  0.86165645  0.31029382  0.10373833    -0.11900
C3049       C  0.85951502  0.33189056  0.10332210    -0.03000
C3050       C  0.84670118  0.34027159  0.08733828     0.02500
C3051       C  0.82539281  0.29291539  0.06059594     0.09300
N3052       N  0.85194893  0.27570885  0.09328698     0.65700
H3053       H  0.87247756  0.30288464  0.11395527     0.18600
N3054       N  0.84524016  0.36189998  0.08352144     0.76200
H3055       H  0.82697020  0.33405338  0.06154752     0.10100
C3056       C  0.80399833  0.29627987  0.05639752     0.03800
C3057       C  0.79393184  0.28473544  0.04118402    -0.04900
C3058       C  0.80466252  0.26957436  0.03014497    -0.23300
C3059       C  0.82590196  0.26601205  0.03434732     0.13100
C3060       C  0.83614715  0.27784748  0.04926018    -0.12400
N3061       N  0.79211418  0.31101198  0.06776797     0.64700
H3062       H  0.77754253  0.28745799  0.03808534     0.12600
N3063       N  0.83715664  0.25022794  0.02383781     0.61400
H3064       H  0.85266840  0.27541868  0.05175125     0.08700
O3065       O  0.82958157  0.37171944  0.08999562    -0.40100
O3066       O  0.85546615  0.36928732  0.06870855    -0.39300
O3067       O  0.86880428  0.26685507  0.08853456    -0.39300
O3068       O  0.83912874  0.26661189  0.10481935    -0.37000
O3069       O  0.84844376  0.25483163  0.00865263    -0.37900
O3070       O  0.83945562  0.23298573  0.03233610    -0.34000
O3071       O  0.78638776  0.32740618  0.05914851    -0.35400
O3072       O  0.78347367  0.30564488  0.08431624    -0.39700
C3073       C  0.79935410  0.30333786  0.90240528    -0.13400
C3074       C  0.81741592  0.29576777  0.89264638     0.17000
C3075       C  0.82424515  0.27557299  0.89740484     0.03300
C3076       C  0.81443055  0.26452052  0.91298727    -0.11900
C3077       C  0.79691819  0.27245629  0.92296014    -0.03000
C3078       C  0.78867314  0.29147261  0.91688616     0.02500
C3079       C  0.83051728  0.30987996  0.88002522     0.09300
N3080       N  0.84077949  0.26579970  0.88629369     0.65700
H3081       H  0.82021035  0.24941902  0.91704081     0.18600
N3082       N  0.76940687  0.29873256  0.92525691     0.76200
H3083       H  0.79382070  0.31871136  0.89937536     0.10100
C3084       C  0.82227618  0.32354447  0.86535219     0.03800
C3085       C  0.83546844  0.33740437  0.85528633    -0.04900
C3086       C  0.85719972  0.33839262  0.85926252    -0.23300
C3087       C  0.86543823  0.32280924  0.87240664     0.13100
C3088       C  0.85202671  0.31016082  0.88352197    -0.12400
N3089       N  0.80068153  0.32327547  0.85983679     0.64700
H3090       H  0.82823933  0.34686696  0.84374446     0.12600
N3091       N  0.88722813  0.31824282  0.87385697     0.61400
H3092       H  0.85882140  0.30013716  0.89490920     0.08700
O3093       O  0.76940742  0.30947473  0.94141605    -0.40100
O3094       O  0.75238312  0.29188729  0.91828585    -0.39300
O3095       O  0.85746596  0.26131576  0.89556334    -0.39300
O3096       O  0.83653718  0.25668065  0.86968250    -0.37000
O3097       O  0.89452224  0.30505459  0.86154649    -0.37900
O3098       O  0.89611225  0.32022728  0.89104143    -0.34000
O3099       O  0.78918583  0.33800838  0.86544485    -0.35400
O3100       O  0.79497366  0.31228667  0.84486000    -0.39700
C3101       C  0.22054027  0.67363829  0.07110090    -0.13400
C3102       C  0.19866428  0.67521056  0.07029318     0.17000
C3103       C  0.18968936  0.68870989  0.05577733     0.03300
C3104       C  0.20248656  0.70005776  0.04251799    -0.11900
C3105       C  0.22428140  0.69793621  0.04285328    -0.03000
C3106       C  0.23332298  0.68460182  0.05742410     0.02500
C3107       C  0.18549517  0.66317327  0.08498096     0.09300
N3108       N  0.16756481  0.69033712  0.05354122     0.65700
H3109       H  0.19530676  0.71013576  0.03134128     0.18600
N3110       N  0.25539096  0.68158198  0.05819662     0.76200
H3111       H  0.22780021  0.66379945  0.08241110     0.10100
C3112       C  0.18732648  0.64173554  0.08693643     0.03800
C3113       C  0.17425654  0.63102987  0.10040155    -0.04900
C3114       C  0.15890987  0.64084636  0.11272018    -0.23300
C3115       C  0.15769300  0.66283227  0.11103062     0.13100
C3116       C  0.17097673  0.67338827  0.09743036    -0.12400
N3117       N  0.20192987  0.63033363  0.07485281     0.64700
H3118       H  0.17596943  0.61448652  0.10107330     0.12600
N3119       N  0.14298102  0.67516384  0.12202985     0.61400
H3120       H  0.16974544  0.68995628  0.09647818     0.08700
O3121       O  0.26589066  0.69059173  0.07192507    -0.40100
O3122       O  0.26327440  0.66642431  0.04889243    -0.39300
O3123       O  0.15844067  0.70644731  0.05955413    -0.39300
O3124       O  0.15827473  0.67837639  0.04129698    -0.37000
O3125       O  0.14976760  0.68716868  0.13575012    -0.37900
O3126       O  0.12573627  0.67932060  0.11368289    -0.34000
O3127       O  0.21845340  0.62386297  0.08316337    -0.35400
O3128       O  0.19598522  0.62242336  0.05813262    -0.39700
C3129       C  0.21667405  0.66737601  0.91547091    -0.13400
C3130       C  0.19981894  0.67705552  0.90557848     0.17000
C3131       C  0.19522969  0.69769866  0.91106307     0.03300
C3132       C  0.20719657  0.70783548  0.92608187    -0.11900
C3133       C  0.22434784  0.69824255  0.93537378    -0.03000
C3134       C  0.22926105  0.67790392  0.92964808     0.02500
C3135       C  0.18683375  0.66509730  0.89041699     0.09300
N3136       N  0.17891257  0.70890158  0.90116580     0.65700
H3137       H  0.20330800  0.72350164  0.93026893     0.18600
N3138       N  0.24718562  0.66779651  0.93788077     0.76200
H3139       H  0.22011866  0.65141390  0.91235091     0.10100
C3140       C  0.19583619  0.65253457  0.87502936     0.03800
C3141       C  0.18317076  0.64098256  0.86174053    -0.04900
C3142       C  0.16112606  0.64088691  0.86327334    -0.23300
C3143       C  0.15220542  0.65439683  0.87831146     0.13100
C3144       C  0.16499968  0.66563340  0.89178892    -0.12400
N3145       N  0.21794065  0.65148415  0.87225086     0.64700
H3146       H  0.19110138  0.63266460  0.84970055     0.12600
N3147       N  0.13010977  0.65706400  0.88029117     0.61400
H3148       H  0.15759213  0.67467095  0.90370765     0.08700
O3149       O  0.26415903  0.66852019  0.92808034    -0.40100
O3150       O  0.24486593  0.65438434  0.95163818    -0.39300
O3151       O  0.16287155  0.71385122  0.91129725    -0.39300
O3152       O  0.18276551  0.71804396  0.88453474    -0.37000
O3153       O  0.12072812  0.64847090  0.89498349    -0.37900
O3154       O  0.12182074  0.67262713  0.87215681    -0.34000
O3155       O  0.22744244  0.63525735  0.87721720    -0.35400
O3156       O  0.22664438  0.66390983  0.86013978    -0.39700
C3157       C  0.30580362  0.81003133  0.06047167    -0.13400
C3158       C  0.32265039  0.80099478  0.07084409     0.17000
C3159       C  0.32673569  0.77990907  0.06783316     0.03300
C3160       C  0.31456795  0.76848345  0.05398829    -0.11900
C3161       C  0.29825071  0.77773792  0.04303473    -0.03000
C3162       C  0.29364404  0.79861252  0.04664482     0.02500
C3163       C  0.33620572  0.81398923  0.08411043     0.09300
N3164       N  0.34378249  0.77012414  0.07799259     0.65700
H3165       H  0.31824149  0.75245011  0.05130506     0.18600
N3166       N  0.27671154  0.80841943  0.03632661     0.76200
H3167       H  0.30223246  0.82611818  0.06295626     0.10100
C3168       C  0.34792380  0.83010049  0.07573374     0.03800
C3169       C  0.36060969  0.84218158  0.08834685    -0.04900
C3170       C  0.36262637  0.83867362  0.10978064    -0.23300
C3171       C  0.34861403  0.82378384  0.11830429     0.13100
C3172       C  0.33644763  0.81117790  0.10539502    -0.12400
N3173       N  0.34706427  0.83455249  0.05427140     0.64700
H3174       H  0.36849516  0.85470446  0.08081137     0.12600
N3175       N  0.34580800  0.82157415  0.13998424     0.61400
H3176       H  0.32645419  0.79959075  0.11215561     0.08700
O3177       O  0.28037154  0.81953346  0.02090113    -0.40100
O3178       O  0.25919277  0.80961959  0.04510894    -0.39300
O3179       O  0.34021260  0.75824483  0.09285749    -0.39300
O3180       O  0.36154877  0.77001635  0.06962663    -0.37000
O3181       O  0.35124485  0.80497133  0.14839164    -0.37900
O3182       O  0.33203475  0.83237963  0.14870239    -0.34000
O3183       O  0.33610251  0.84941495  0.04812553    -0.35400
O3184       O  0.36054397  0.82685075  0.04240285    -0.39700
C3185       C  0.33112910  0.81152827  0.87168383    -0.13400
C3186       C  0.33580309  0.81250828  0.89263539     0.17000
C3187       C  0.35273558  0.82457311  0.89906708     0.03300
C3188       C  0.36385402  0.83634634  0.88480281    -0.11900
C3189       C  0.35854190  0.83686477  0.86365669    -0.03000
C3190       C  0.34252384  0.82293513  0.85717297     0.02500
C3191       C  0.32351985  0.80007039  0.90746680     0.09300
N3192       N  0.35942350  0.82445883  0.91999917     0.65700
H3193       H  0.37721363  0.84463229  0.89062592     0.18600
N3194       N  0.33780658  0.81957327  0.83594757     0.76200
H3195       H  0.31870494  0.80148990  0.86646066     0.10100
C3196       C  0.30676060  0.80868794  0.91856801     0.03800
C3197       C  0.29561048  0.79667379  0.93269015    -0.04900
C3198       C  0.30070857  0.77595457  0.93582942    -0.23300
C3199       C  0.31725600  0.76723006  0.92444535     0.13100
C3200       C  0.32853207  0.77931321  0.91044287    -0.12400
N3201       N  0.30067608  0.82953827  0.91538330     0.64700
H3202       H  0.28289163  0.80353707  0.94127655     0.12600
N3203       N  0.32298624  0.74622499  0.92719862     0.61400
H3204       H  0.34132511  0.77250122  0.90192051     0.08700
O3205       O  0.34625440  0.80450209  0.82698379    -0.40100
O3206       O  0.32083112  0.82637668  0.82887405    -0.39300
O3207       O  0.37504937  0.81378162  0.92497968    -0.39300
O3208       O  0.35313489  0.83836980  0.93202857    -0.37000
O3209       O  0.31600291  0.73279494  0.91498927    -0.37900
O3210       O  0.33808320  0.74182608  0.93881975    -0.34000
O3211       O  0.28616718  0.83350758  0.90291205    -0.35400
O3212       O  0.30676751  0.84325858  0.92772694    -0.39700
C3213       C  0.21945690  0.41276261  0.16671685    -0.13400
C3214       C  0.19818006  0.40921922  0.17040491     0.17000
C3215       C  0.18824333  0.42006255  0.18657176     0.03300
C3216       C  0.19949969  0.43445517  0.19819400    -0.11900
C3217       C  0.22066733  0.43810119  0.19425544    -0.03000
C3218       C  0.23070654  0.42700380  0.17847285     0.02500
C3219       C  0.18705949  0.39319730  0.15822427     0.09300
N3220       N  0.16673028  0.41673111  0.19135654     0.65700
H3221       H  0.19170844  0.44279972  0.21041768     0.18600
N3222       N  0.25237593  0.42996206  0.17428201     0.76200
H3223       H  0.22755057  0.40407614  0.15494676     0.10100
C3224       C  0.18722701  0.39290895  0.13660736     0.03800
C3225       C  0.17655945  0.37746411  0.12594749    -0.04900
C3226       C  0.16408251  0.36269229  0.13609590    -0.23300
C3227       C  0.16625798  0.36166104  0.15811280     0.13100
C3228       C  0.17738213  0.37702671  0.16854487    -0.12400
N3229       N  0.19713949  0.40882184  0.12511102     0.64700
H3230       H  0.17653077  0.37817628  0.10932598     0.12600
N3231       N  0.15874199  0.34505538  0.17055948     0.61400
H3232       H  0.17886934  0.37600469  0.18508605     0.08700
O3233       O  0.26556078  0.41778713  0.18192106    -0.40100
O3234       O  0.25776226  0.44152016  0.15969731    -0.39300
O3235       O  0.16200640  0.40605450  0.20682279    -0.39300
O3236       O  0.15307435  0.42820236  0.18344569    -0.37000
O3237       O  0.17070217  0.33002132  0.17366086    -0.37900
O3238       O  0.14551784  0.34909835  0.18435848    -0.34000
O3239       O  0.21389077  0.40492791  0.11567165    -0.35400
O3240       O  0.18672601  0.42450180  0.12019329    -0.39700
C3241       C  0.16219970  0.58541480  0.16657920    -0.13400
C3242       C  0.18330011  0.59003108  0.16952718     0.17000
C3243       C  0.19144608  0.60737339  0.15933875     0.03300
C3244       C  0.17897588  0.61853368  0.14556254    -0.11900
C3245       C  0.15781905  0.61336752  0.14150789    -0.03000
C3246       C  0.14928013  0.59744501  0.15407341     0.02500
C3247       C  0.19659650  0.57585546  0.18215968     0.09300
N3248       N  0.21209245  0.61460174  0.16349094     0.65700
H3249       H  0.18609218  0.63191696  0.13875677     0.18600
N3250       N  0.12746580  0.59313552  0.15482106     0.76200
H3251       H  0.15541921  0.57219914  0.17405269     0.10100
C3252       C  0.18967212  0.56745324  0.20111634     0.03800
C3253       C  0.20142394  0.55217724  0.21093010    -0.04900
C3254       C  0.22039228  0.54548096  0.20270066    -0.23300
C3255       C  0.22788946  0.55437693  0.18450569     0.13100
C3256       C  0.21583294  0.56902152  0.17416077    -0.12400
N3257       N  0.17103807  0.57448653  0.21095978     0.64700
H3258       H  0.19576111  0.54555617  0.22513197     0.12600
N3259       N  0.24765549  0.54835737  0.17626955     0.61400
H3260       H  0.22132543  0.57458727  0.15948877     0.08700
O3261       O  0.11670905  0.60229317  0.16827156    -0.40100
O3262       O  0.12117276  0.57591033  0.14835552    -0.39300
O3263       O  0.22595205  0.61288394  0.14981487    -0.39300
O3264       O  0.21482688  0.62723041  0.17798593    -0.37000
O3265       O  0.26416719  0.55590326  0.18369083    -0.37900
O3266       O  0.24878733  0.53317106  0.16423294    -0.34000
O3267       O  0.15547314  0.56263320  0.21186952    -0.35400
O3268       O  0.17224982  0.58925761  0.22349469    -0.39700
C3269       C  0.16542183  0.18123469  0.59020263    -0.13400
C3270       C  0.18643848  0.17740125  0.58565695     0.17000
C3271       C  0.19597506  0.16082884  0.59624643     0.03300
C3272       C  0.18428222  0.14867541  0.60983168    -0.11900
C3273       C  0.16226697  0.14943495  0.61050900    -0.03000
C3274       C  0.15310177  0.16726238  0.60121026     0.02500
C3275       C  0.19789129  0.19101167  0.57047525     0.09300
N3276       N  0.21716744  0.15496766  0.59262545     0.65700
H3277       H  0.19294235  0.13793684  0.61894097     0.18600
N3278       N  0.13143583  0.17220764  0.60296264     0.76200
H3279       H  0.15804145  0.19514731  0.58492681     0.10100
C3280       C  0.18786293  0.20030008  0.55329180     0.03800
C3281       C  0.19934462  0.21229892  0.53945076    -0.04900
C3282       C  0.22119550  0.21294071  0.54011069    -0.23300
C3283       C  0.23119311  0.20448947  0.55754100     0.13100
C3284       C  0.21936887  0.19495919  0.57295532    -0.12400
N3285       N  0.16643953  0.19656102  0.54843050     0.64700
H3286       H  0.19117781  0.21971843  0.52692647     0.12600
N3287       N  0.25341113  0.20472488  0.55964031     0.61400
H3288       H  0.22744977  0.19016173  0.58666038     0.08700
O3289       O  0.11982503  0.16922848  0.58760397    -0.40100
O3290       O  0.12620366  0.18593681  0.61568853    -0.39300
O3291       O  0.23016294  0.15576081  0.60717964    -0.39300
O3292       O  0.22163239  0.14485104  0.57665305    -0.37000
O3293       O  0.26378947  0.18987492  0.55247411    -0.37900
O3294       O  0.26159389  0.21596675  0.57326699    -0.34000
O3295       O  0.15352541  0.21115786  0.54967963    -0.35400
O3296       O  0.16179821  0.18095594  0.53783840    -0.39700
C3297       C  0.19568545  0.13955645  0.38609732    -0.13400
C3298       C  0.19598221  0.16098454  0.38545056     0.17000
C3299       C  0.18419726  0.17063734  0.36990436     0.03300
C3300       C  0.17082464  0.15901519  0.35733589    -0.11900
C3301       C  0.16710926  0.13783345  0.36081508    -0.03000
C3302       C  0.18159980  0.12799973  0.37437038     0.02500
C3303       C  0.20880989  0.17272118  0.40082531     0.09300
N3304       N  0.18502159  0.19234992  0.36692435     0.65700
H3305       H  0.16313012  0.16712286  0.34505853     0.18600
N3306       N  0.18208751  0.10632105  0.37730221     0.76200
H3307       H  0.20634255  0.13148481  0.39612352     0.10100
C3308       C  0.20983871  0.16703975  0.42176108     0.03800
C3309       C  0.22169608  0.17871120  0.43556528    -0.04900
C3310       C  0.23006238  0.19795433  0.43015772    -0.23300
C3311       C  0.23300728  0.20084580  0.40856636     0.13100
C3312       C  0.22174147  0.18881358  0.39439343    -0.12400
N3313       N  0.19825322  0.15004856  0.42968849     0.64700
H3314       H  0.22401518  0.17242419  0.45068733     0.12600
N3315       N  0.24987539  0.21281258  0.40057243     0.61400
H3316       H  0.22411117  0.19132745  0.37813398     0.08700
O3317       O  0.17657031  0.09939718  0.39457042    -0.40100
O3318       O  0.19492678  0.09599400  0.36679784    -0.39300
O3319       O  0.19382686  0.19942786  0.35111254    -0.39300
O3320       O  0.17333977  0.20387469  0.37747433    -0.37000
O3321       O  0.26835239  0.20786661  0.40510456    -0.37900
O3322       O  0.24676170  0.22442709  0.38537557    -0.34000
O3323       O  0.20789655  0.13450274  0.43628083    -0.35400
O3324       O  0.17938730  0.15261714  0.43463034    -0.39700
C3325       C  0.60896730  0.14364971  0.15784787    -0.13400
C3326       C  0.60420708  0.16353349  0.15111382     0.17000
C3327       C  0.61429326  0.17056329  0.13308908     0.03300
C3328       C  0.62942097  0.15836703  0.12340341    -0.11900
C3329       C  0.63384620  0.13809044  0.12975689    -0.03000
C3330       C  0.62173233  0.13042070  0.14648892     0.02500
C3331       C  0.58920024  0.17657862  0.16330442     0.09300
N3332       N  0.60847189  0.18936982  0.12334888     0.65700
H3333       H  0.63646502  0.16457895  0.10968076     0.18600
N3334       N  0.62120609  0.10911337  0.15187186     0.76200
H3335       H  0.60240304  0.13782296  0.17192528     0.10100
C3336       C  0.57165689  0.16816422  0.17370576     0.03800
C3337       C  0.55914020  0.18070054  0.18606447    -0.04900
C3338       C  0.56209508  0.20199473  0.18699906    -0.23300
C3339       C  0.57891905  0.21066799  0.17601471     0.13100
C3340       C  0.59285838  0.19783515  0.16540590    -0.12400
N3341       N  0.56533786  0.14724773  0.17109829     0.64700
H3342       H  0.54611450  0.17383520  0.19417208     0.12600
N3343       N  0.58150405  0.23242921  0.17448293     0.61400
H3344       H  0.60646835  0.20479452  0.15854828     0.08700
O3345       O  0.60637346  0.09840215  0.14490721    -0.40100
O3346       O  0.62961822  0.10351515  0.16845891    -0.39300
O3347       O  0.62171725  0.20365642  0.12197984    -0.39300
O3348       O  0.59283122  0.18949108  0.11157367    -0.37000
O3349       O  0.59778220  0.24068574  0.18165905    -0.37900
O3350       O  0.57092948  0.24206769  0.16131417    -0.34000
O3351       O  0.56605862  0.13528227  0.18630620    -0.35400
O3352       O  0.55384530  0.14261026  0.15604828    -0.39700
C3353       C  0.42261201  0.15210010  0.13773800    -0.13400
C3354       C  0.41263233  0.16485626  0.15193267     0.17000
C3355       C  0.39079050  0.16575687  0.15199274     0.03300
C3356       C  0.37942496  0.15256102  0.13930792    -0.11900
C3357       C  0.38908582  0.13743641  0.12683387    -0.03000
C3358       C  0.41136473  0.13911792  0.12453764     0.02500
C3359       C  0.42560023  0.17785671  0.16554817     0.09300
N3360       N  0.37979046  0.17922432  0.16555799     0.65700
H3361       H  0.36268078  0.15327179  0.14033604     0.18600
N3362       N  0.42308004  0.12937444  0.10840322     0.76200
H3363       H  0.43946268  0.15282892  0.13639114     0.10100
C3364       C  0.43949896  0.16889898  0.17971586     0.03800
C3365       C  0.45345900  0.18126664  0.19062495    -0.04900
C3366       C  0.45407873  0.20252740  0.18752258    -0.23300
C3367       C  0.43995952  0.21161444  0.17361715     0.13100
C3368       C  0.42573924  0.19923046  0.16285659    -0.12400
N3369       N  0.43977103  0.14721299  0.18302977     0.64700
H3370       H  0.46416308  0.17419531  0.20138443     0.12600
N3371       N  0.44048613  0.23316858  0.16961431     0.61400
H3372       H  0.41539279  0.20621073  0.15171798     0.08700
O3373       O  0.44014892  0.12066788  0.11266320    -0.40100
O3374       O  0.41971478  0.13432039  0.08999129    -0.39300
O3375       O  0.37198813  0.19553494  0.15850082    -0.39300
O3376       O  0.37325631  0.17237293  0.18248846    -0.37000
O3377       O  0.45158805  0.23976364  0.15505046    -0.37900
O3378       O  0.42646201  0.24458776  0.17705749    -0.34000
O3379       O  0.45303136  0.13631358  0.17368637    -0.35400
O3380       O  0.43047480  0.13992073  0.19845779    -0.39700
C3381       C  0.08288629  0.28444887  0.16849705    -0.13400
C3382       C  0.09715367  0.29858788  0.17668193     0.17000
C3383       C  0.09672540  0.30267978  0.19805543     0.03300
C3384       C  0.08176480  0.29315392  0.21055730    -0.11900
C3385       C  0.06736605  0.27920707  0.20223613    -0.03000
C3386       C  0.06822991  0.27466514  0.18104490     0.02500
C3387       C  0.11037726  0.31075876  0.16238597     0.09300
N3388       N  0.11147108  0.31632538  0.20733392     0.65700
H3389       H  0.08127614  0.29675686  0.22681461     0.18600
N3390       N  0.05410333  0.26029365  0.17197600     0.76200
H3391       H  0.08260924  0.28147333  0.15212376     0.10100
C3392       C  0.12364711  0.30163307  0.14768415     0.03800
C3393       C  0.13518255  0.31397245  0.13416658    -0.04900
C3394       C  0.13463252  0.33563406  0.13529772    -0.23300
C3395       C  0.11920745  0.34445390  0.14862569     0.13100
C3396       C  0.10772003  0.33202545  0.16198139    -0.12400
N3397       N  0.12575781  0.27982901  0.14627944     0.64700
H3398       H  0.14435973  0.30621026  0.12264125     0.12600
N3399       N  0.11452442  0.36595922  0.14878508     0.61400
H3400       H  0.09631733  0.33916008  0.17202416     0.08700
O3401       O  0.05963746  0.24179932  0.16997367    -0.40100
O3402       O  0.03864691  0.26681779  0.16192022    -0.39300
O3403       O  0.10580544  0.33422486  0.21231216    -0.39300
O3404       O  0.12792860  0.30901847  0.21504752    -0.37000
O3405       O  0.12223232  0.37727712  0.16260282    -0.37900
O3406       O  0.09824355  0.37196984  0.13969708    -0.34000
O3407       O  0.11739775  0.27042643  0.13142778    -0.35400
O3408       O  0.13989284  0.27102959  0.15647137    -0.39700
C3409       C  0.92013317  0.20584250  0.29399477    -0.13400
C3410       C  0.92449348  0.18535913  0.29936238     0.17000
C3411       C  0.94317592  0.17640357  0.29170132     0.03300
C3412       C  0.95645966  0.18766830  0.27907280    -0.11900
C3413       C  0.95339287  0.20868878  0.27593790    -0.03000
C3414       C  0.93472339  0.21777377  0.28321431     0.02500
C3415       C  0.90961026  0.17309037  0.31226524     0.09300
N3416       N  0.95007040  0.15652769  0.29805676     0.65700
H3417       H  0.97043851  0.18032679  0.27319477     0.18600
N3418       N  0.93059519  0.23917217  0.28046677     0.76200
H3419       H  0.90555025  0.21290605  0.29839176     0.10100
C3420       C  0.89857547  0.18097422  0.32935315     0.03800
C3421       C  0.88688375  0.16771406  0.34181997    -0.04900
C3422       C  0.88748529  0.14607321  0.33945795    -0.23300
C3423       C  0.89628365  0.13890097  0.32042441     0.13100
C3424       C  0.90638171  0.15249963  0.30719324    -0.12400
N3425       N  0.89906078  0.20227763  0.33468861     0.64700
H3426       H  0.87764698  0.17499147  0.35353528     0.12600
N3427       N  0.89424730  0.11827722  0.31306978     0.61400
H3428       H  0.91204493  0.14660062  0.29266780     0.08700
O3429       O  0.91646574  0.24463435  0.26813156    -0.40100
O3430       O  0.93685666  0.25175477  0.29389420    -0.39300
O3431       O  0.95087873  0.14212515  0.28505221    -0.39300
O3432       O  0.96042769  0.15500192  0.31445900    -0.37000
O3433       O  0.87976731  0.11461538  0.30044050    -0.37900
O3434       O  0.91045977  0.10734377  0.31196751    -0.34000
O3435       O  0.88315871  0.21317799  0.33121667    -0.35400
O3436       O  0.91242238  0.20853500  0.34749034    -0.39700
C3437       C  0.94512541  0.28772827  0.16337347    -0.13400
C3438       C  0.93147198  0.30197000  0.17247038     0.17000
C3439       C  0.93162582  0.30455006  0.19400605     0.03300
C3440       C  0.94591188  0.29358345  0.20593817    -0.11900
C3441       C  0.95971225  0.27963729  0.19678241    -0.03000
C3442       C  0.95897874  0.27633032  0.17544436     0.02500
C3443       C  0.91668527  0.31340572  0.15932010     0.09300
N3444       N  0.91745574  0.31828128  0.20397443     0.65700
H3445       H  0.94627256  0.29594795  0.22242260     0.18600
N3446       N  0.97159525  0.26080230  0.16610328     0.76200
H3447       H  0.94466323  0.28514915  0.14692643     0.10100
C3448       C  0.92358867  0.32831815  0.14545764     0.03800
C3449       C  0.90922567  0.33874981  0.13316888    -0.04900
C3450       C  0.88757590  0.33390518  0.13299359    -0.23300
C3451       C  0.88086128  0.31957772  0.14834422     0.13100
C3452       C  0.89538862  0.30940007  0.16079418    -0.12400
N3453       N  0.94520462  0.33352043  0.14401588     0.64700
H3454       H  0.91563709  0.35105935  0.12413600     0.12600
N3455       N  0.85938627  0.31556767  0.15248023     0.61400
H3456       H  0.88988058  0.29829337  0.17191994     0.08700
O3457       O  0.98938897  0.26532674  0.15916585    -0.40100
O3458       O  0.96639092  0.24218123  0.16771749    -0.39300
O3459       O  0.90111551  0.31114318  0.21209251    -0.39300
O3460       O  0.92365981  0.33596691  0.20907761    -0.37000
O3461       O  0.85225875  0.29801720  0.14808020    -0.37900
O3462       O  0.85080834  0.32551351  0.16686406    -0.34000
O3463       O  0.95601522  0.32596501  0.12965732    -0.35400
O3464       O  0.95199386  0.34893074  0.15373156    -0.39700
C3465       C  0.07849035  0.19722793  0.31655918    -0.13400
C3466       C  0.09233372  0.18435091  0.30552128     0.17000
C3467       C  0.09093205  0.18499620  0.28363612     0.03300
C3468       C  0.07505412  0.19622118  0.27409051    -0.11900
C3469       C  0.06251083  0.20997599  0.28511633    -0.03000
C3470       C  0.06516645  0.21115285  0.30660221     0.02500
C3471       C  0.10702535  0.16977795  0.31673481     0.09300
N3472       N  0.10630392  0.17587286  0.27053679     0.65700
H3473       H  0.07357587  0.19537381  0.25751892     0.18600
N3474       N  0.05525287  0.22693436  0.31845740     0.76200
H3475       H  0.07783543  0.19695482  0.33305730     0.10100
C3476       C  0.11408466  0.17282401  0.33721824     0.03800
C3477       C  0.12552230  0.15744302  0.34722361    -0.04900
C3478       C  0.13449067  0.14061217  0.33662651    -0.23300
C3479       C  0.12807212  0.13803551  0.31563571     0.13100
C3480       C  0.11331087  0.15143869  0.30710442    -0.12400
N3481       N  0.11141650  0.19187158  0.34787952     0.64700
H3482       H  0.12918662  0.15976908  0.36331420     0.12600
N3483       N  0.13494536  0.12165613  0.30251802     0.61400
H3484       H  0.10662280  0.14686363  0.29263323     0.08700
O3485       O  0.04296164  0.22209921  0.33280545    -0.40100
O3486       O  0.06293445  0.24477797  0.31823836    -0.39300
O3487       O  0.10082323  0.16220534  0.25782761    -0.39300
O3488       O  0.12338136  0.18512491  0.26781435    -0.37000
O3489       O  0.14745424  0.12609457  0.28823120    -0.37900
O3490       O  0.12308776  0.10643574  0.29980926    -0.34000
O3491       O  0.10093957  0.19224978  0.36430535    -0.35400
O3492       O  0.12383062  0.20643969  0.34415328    -0.39700
C3493       C  0.34947181  0.88069113  0.16970913    -0.13400
C3494       C  0.33313663  0.89092954  0.15959943     0.17000
C3495       C  0.33108463  0.88763892  0.13822075     0.03300
C3496       C  0.34581894  0.87576686  0.12763686    -0.11900
C3497       C  0.36237952  0.86528427  0.13756557    -0.03000
C3498       C  0.36299456  0.86697331  0.15951457     0.02500
C3499       C  0.31950116  0.90579500  0.17138865     0.09300
N3500       N  0.31373415  0.89550139  0.12687826     0.65700
H3501       H  0.34411903  0.87462740  0.11112712     0.18600
N3502       N  0.37561100  0.85406552  0.17226349     0.76200
H3503       H  0.35172422  0.88300965  0.18598994     0.10100
C3504       C  0.31308153  0.90218018  0.19193480     0.03800
C3505       C  0.30335824  0.91780924  0.20333488    -0.04900
C3506       C  0.29747092  0.93651468  0.19431385    -0.23300
C3507       C  0.30231545  0.93950891  0.17330196     0.13100
C3508       C  0.31413736  0.92480228  0.16257693    -0.12400
N3509       N  0.31523894  0.88245217  0.20128155     0.64700
H3510       H  0.29990793  0.91501128  0.21937404     0.12600
N3511       N  0.29504543  0.95716573  0.16240619     0.61400
H3512       H  0.31920707  0.92852948  0.14721684     0.08700
O3513       O  0.38730111  0.86223778  0.18558539    -0.40100
O3514       O  0.37006104  0.83568145  0.17492575    -0.39300
O3515       O  0.31688285  0.90910807  0.11345877    -0.39300
O3516       O  0.29723378  0.88495748  0.12593424    -0.37000
O3517       O  0.27668423  0.95712374  0.15540220    -0.37900
O3518       O  0.30812363  0.96969139  0.15513565    -0.34000
O3519       O  0.32705723  0.88050506  0.21666195    -0.35400
O3520       O  0.30132752  0.86909924  0.19807790    -0.39700
C3521       C  0.17333917  0.07675773  0.32303435    -0.13400
C3522       C  0.18695036  0.08628786  0.30923961     0.17000
C3523       C  0.18774745  0.10773803  0.30858777     0.03300
C3524       C  0.17504990  0.11926114  0.32166481    -0.11900
C3525       C  0.16077246  0.11017765  0.33562457    -0.03000
C3526       C  0.16045564  0.08811636  0.33640735     0.02500
C3527       C  0.20139707  0.07337974  0.29703036     0.09300
N3528       N  0.20146689  0.11817879  0.29481854     0.65700
H3529       H  0.17609507  0.13583568  0.32059328     0.18600
N3530       N  0.14877996  0.07649447  0.35114475     0.76200
H3531       H  0.17329402  0.06013301  0.32397387     0.10100
C3532       C  0.19599607  0.06617661  0.27732526     0.03800
C3533       C  0.20870231  0.05163363  0.26745103    -0.04900
C3534       C  0.22700964  0.04438508  0.27681781    -0.23300
C3535       C  0.23299131  0.05251998  0.29604024     0.13100
C3536       C  0.22006244  0.06674098  0.30607442    -0.12400
N3537       N  0.17750001  0.07324816  0.26734558     0.64700
H3538       H  0.20419401  0.04581623  0.25248106     0.12600
N3539       N  0.25204670  0.04637392  0.30559929     0.61400
H3540       H  0.22440997  0.07236547  0.32116784     0.08700
O3541       O  0.13612798  0.06315584  0.34459151    -0.40100
O3542       O  0.15641645  0.07378549  0.36875985    -0.39300
O3543       O  0.19460323  0.12400460  0.27763419    -0.39300
O3544       O  0.21799053  0.12612957  0.30176387    -0.37000
O3545       O  0.25171286  0.03259004  0.31916965    -0.37900
O3546       O  0.26793085  0.05771252  0.30399294    -0.34000
O3547       O  0.17865310  0.08789563  0.25475402    -0.35400
O3548       O  0.16113280  0.06250065  0.26802211    -0.39700
C3549       C  0.33764436  0.08001320  0.14068537    -0.13400
C3550       C  0.33865285  0.08453660  0.16171267     0.17000
C3551       C  0.35253719  0.10004603  0.16825767     0.03300
C3552       C  0.36438413  0.11087493  0.15385313    -0.11900
C3553       C  0.36198466  0.10792766  0.13239541    -0.03000
C3554       C  0.34871085  0.09143086  0.12610885     0.02500
C3555       C  0.32641504  0.07160910  0.17633306     0.09300
N3556       N  0.35480380  0.10533756  0.18947720     0.65700
H3557       H  0.37574810  0.12134135  0.16010078     0.18600
N3558       N  0.34672830  0.08536166  0.10505147     0.76200
H3559       H  0.32838280  0.06714282  0.13538824     0.10100
C3560       C  0.30524270  0.06657725  0.17255761     0.03800
C3561       C  0.29511925  0.05207976  0.18485036    -0.04900
C3562       C  0.30521040  0.04313244  0.20166825    -0.23300
C3563       C  0.32584084  0.04905008  0.20632294     0.13100
C3564       C  0.33644376  0.06260054  0.19328652    -0.12400
N3565       N  0.29361017  0.07630540  0.15656656     0.64700
H3566       H  0.27909595  0.04795554  0.18142263     0.12600
N3567       N  0.33618138  0.04155898  0.22425326     0.61400
H3568       H  0.35273730  0.06570119  0.19629129     0.08700
O3569       O  0.33117170  0.09142933  0.09486506    -0.40100
O3570       O  0.35635658  0.06954538  0.09900195    -0.39300
O3571       O  0.37141675  0.10048012  0.19868283    -0.39300
O3572       O  0.34362150  0.11952344  0.19682016    -0.37000
O3573       O  0.33394108  0.05111774  0.24099898    -0.37900
O3574       O  0.35118249  0.02914224  0.22233180    -0.34000
O3575       O  0.28852815  0.06604237  0.14086544    -0.35400
O3576       O  0.28402117  0.09278424  0.16049179    -0.39700
C3577       C  0.22338266  0.90717490  0.29834642    -0.13400
C3578       C  0.20149228  0.90780043  0.29694827     0.17000
C3579       C  0.19213924  0.92326096  0.28483301     0.03300
C3580       C  0.20453599  0.93759148  0.27450477    -0.11900
C3581       C  0.22631804  0.93716983  0.27611933    -0.03000
C3582       C  0.23580843  0.92174170  0.28812138     0.02500
C3583       C  0.18840517  0.89371483  0.30962587     0.09300
N3584       N  0.16997198  0.92469706  0.28292072     0.65700
H3585       H  0.19708443  0.94931091  0.26526866     0.18600
N3586       N  0.25792865  0.92127646  0.29084957     0.76200
H3587       H  0.23083418  0.89583563  0.30802530     0.10100
C3588       C  0.18975014  0.87221191  0.30832568     0.03800
C3589       C  0.17601611  0.85993329  0.31973139    -0.04900
C3590       C  0.16054648  0.86826441  0.33299833    -0.23300
C3591       C  0.16060279  0.89026727  0.33529692     0.13100
C3592       C  0.17429431  0.90228594  0.32356128    -0.12400
N3593       N  0.20471709  0.86247097  0.29526121     0.64700
H3594       H  0.17714924  0.84344380  0.31776783     0.12600
N3595       N  0.14781136  0.90136055  0.34952270     0.61400
H3596       H  0.17410222  0.91880441  0.32567643     0.08700
O3597       O  0.26873668  0.90868146  0.28061791    -0.40100
O3598       O  0.26589026  0.93007418  0.30626935    -0.39300
O3599       O  0.16029308  0.93842698  0.29279367    -0.39300
O3600       O  0.16098537  0.91568259  0.26819815    -0.37000
O3601       O  0.15473476  0.90476826  0.36733103    -0.37900
O3602       O  0.13470647  0.91388136  0.34231257    -0.34000
O3603       O  0.22066029  0.85430666  0.30316447    -0.35400
O3604       O  0.19963705  0.85773516  0.27713380    -0.39700
C3605       C  0.21763836  0.29437116  0.89769753    -0.13400
C3606       C  0.19805219  0.30222462  0.90384743     0.17000
C3607       C  0.19031896  0.29596942  0.92334197     0.03300
C3608       C  0.20188555  0.28251814  0.93558680    -0.11900
C3609       C  0.22217642  0.27647946  0.93025164    -0.03000
C3610       C  0.23012719  0.28268148  0.91099977     0.02500
C3611       C  0.18581902  0.31608996  0.88959232     0.09300
N3612       N  0.17136017  0.30390562  0.93178558     0.65700
H3613       H  0.19535793  0.27772788  0.95017140     0.18600
N3614       N  0.25122274  0.27842554  0.90516141     0.76200
H3615       H  0.22368047  0.29750495  0.88255709     0.10100
C3616       C  0.19535070  0.33003876  0.87601093     0.03800
C3617       C  0.18338797  0.34047853  0.86135285    -0.04900
C3618       C  0.16104241  0.34118091  0.86139713    -0.23300
C3619       C  0.15174378  0.32788334  0.87663116     0.13100
C3620       C  0.16407285  0.31472951  0.88869726    -0.12400
N3621       N  0.21717463  0.33462547  0.87711269     0.64700
H3622       H  0.19273466  0.34796545  0.84992330     0.12600
N3623       N  0.12991716  0.32633754  0.88046863     0.61400
H3624       H  0.15604473  0.30321620  0.89758281     0.08700
O3625       O  0.25475088  0.26625878  0.89043281    -0.40100
O3626       O  0.26544453  0.29059591  0.91082662    -0.39300
O3627       O  0.15624037  0.29182847  0.93473976    -0.39300
O3628       O  0.17178810  0.32082249  0.94128048    -0.37000
O3629       O  0.12310517  0.33427934  0.89686549    -0.37900
O3630       O  0.12005246  0.31128229  0.87300567    -0.34000
O3631       O  0.22879675  0.33027576  0.86205028    -0.35400
O3632       O  0.22340386  0.34761989  0.89016425    -0.39700
C3633       C  0.32712720  0.19475181  0.05977643    -0.13400
C3634       C  0.32195555  0.17397553  0.06299064     0.17000
C3635       C  0.30417013  0.16582774  0.05298596     0.03300
C3636       C  0.29271325  0.17800460  0.03937623    -0.11900
C3637       C  0.29841342  0.19837510  0.03565358    -0.03000
C3638       C  0.31551012  0.20693066  0.04619235     0.02500
C3639       C  0.33501588  0.16102578  0.07684413     0.09300
N3640       N  0.29783174  0.14501925  0.05597937     0.65700
H3641       H  0.27943856  0.17142821  0.03140118     0.18600
N3642       N  0.32135597  0.22785234  0.04292801     0.76200
H3643       H  0.34019442  0.20155780  0.06785052     0.10100
C3644       C  0.35672989  0.15929881  0.07431238     0.03800
C3645       C  0.36829033  0.14670457  0.08738391    -0.04900
C3646       C  0.35908482  0.13466484  0.10301465    -0.23300
C3647       C  0.33717387  0.13802873  0.10657294     0.13100
C3648       C  0.32566950  0.15067233  0.09325317    -0.12400
N3649       N  0.36743008  0.16991254  0.05827037     0.64700
H3650       H  0.38486592  0.14603052  0.08487150     0.12600
N3651       N  0.32632074  0.13080412  0.12439686     0.61400
H3652       H  0.30924097  0.15311396  0.09635166     0.08700
O3653       O  0.33251531  0.23249067  0.02765963    -0.40100
O3654       O  0.31270062  0.24190516  0.05325218    -0.39300
O3655       O  0.28244468  0.14129509  0.06748860    -0.39300
O3656       O  0.30390289  0.13143401  0.04347757    -0.37000
O3657       O  0.31106892  0.11876047  0.12199978    -0.37900
O3658       O  0.32705576  0.14141146  0.14063341    -0.34000
O3659       O  0.37814170  0.18558252  0.06269840    -0.35400
O3660       O  0.37066480  0.16080077  0.04143519    -0.39700
C3661       C  0.19219853  0.28693213  0.05290724    -0.13400
C3662       C  0.20262832  0.30230702  0.06406241     0.17000
C3663       C  0.22433016  0.30483193  0.06140272     0.03300
C3664       C  0.23513708  0.29238975  0.04737550    -0.11900
C3665       C  0.22462789  0.27729435  0.03602663    -0.03000
C3666       C  0.20308844  0.27433897  0.03907123     0.02500
C3667       C  0.19061852  0.31517950  0.07871552     0.09300
N3668       N  0.23552053  0.32023783  0.07250392     0.65700
H3669       H  0.25172969  0.29468622  0.04509901     0.18600
N3670       N  0.19226578  0.25833633  0.02842504     0.76200
H3671       H  0.17559602  0.28461526  0.05510564     0.10100
C3672       C  0.17814395  0.33144302  0.07195499     0.03800
C3673       C  0.16601984  0.34254427  0.08600658    -0.04900
C3674       C  0.16474234  0.33726505  0.10717641    -0.23300
C3675       C  0.17960816  0.32231160  0.11393056     0.13100
C3676       C  0.19165320  0.31113941  0.09970362    -0.12400
N3677       N  0.17785305  0.33716645  0.05079652     0.64700
H3678       H  0.15777505  0.35557555  0.07981129     0.12600
N3679       N  0.18397572  0.31893288  0.13509462     0.61400
H3680       H  0.20220155  0.29934990  0.10518864     0.08700
O3681       O  0.18421650  0.26188545  0.01111407    -0.40100
O3682       O  0.19372030  0.24006269  0.03466931    -0.39300
O3683       O  0.24673495  0.31503468  0.08754101    -0.39300
O3684       O  0.23814212  0.33765991  0.06447779    -0.37000
O3685       O  0.19905298  0.32870508  0.14289283    -0.37900
O3686       O  0.17904540  0.30184981  0.14283470    -0.34000
O3687       O  0.16318729  0.33094880  0.03943843    -0.35400
O3688       O  0.18931177  0.35171586  0.04477889    -0.39700
C3689       C  0.31852739  0.19431186  0.90022840    -0.13400
C3690       C  0.31693910  0.17281246  0.89972101     0.17000
C3691       C  0.30319332  0.16298864  0.91356841     0.03300
C3692       C  0.29196238  0.17463237  0.92796923    -0.11900
C3693       C  0.29409534  0.19603343  0.92880435    -0.03000
C3694       C  0.30723569  0.20592304  0.91458100     0.02500
C3695       C  0.33173062  0.16088239  0.88668111     0.09300
N3696       N  0.30054917  0.14119701  0.91326450     0.65700
H3697       H  0.28176988  0.16692648  0.93877072     0.18600
N3698       N  0.31026701  0.22764260  0.91542687     0.76200
H3699       H  0.32938225  0.20206780  0.89012240     0.10100
C3700       C  0.33326591  0.16373755  0.86536422     0.03800
C3701       C  0.34824659  0.15285864  0.85403552    -0.04900
C3702       C  0.36189202  0.13826420  0.86314948    -0.23300
C3703       C  0.36150828  0.13728783  0.88522039     0.13100
C3704       C  0.34618228  0.14806575  0.89629379    -0.12400
N3705       N  0.31918721  0.17703073  0.85478223     0.64700
H3706       H  0.34835920  0.15493528  0.83753233     0.12600
N3707       N  0.37716531  0.12733525  0.89729649     0.61400
H3708       H  0.34621942  0.14714876  0.91291935     0.08700
O3709       O  0.32500590  0.23493703  0.92603252    -0.40100
O3710       O  0.30070503  0.23907330  0.90296541    -0.39300
O3711       O  0.30907532  0.13046996  0.92701713    -0.39300
O3712       O  0.28605082  0.13349580  0.90262353    -0.37000
O3713       O  0.39365219  0.13707573  0.90142473    -0.37900
O3714       O  0.37149760  0.11345033  0.90957511    -0.34000
O3715       O  0.32553401  0.19431071  0.84866898    -0.35400
O3716       O  0.30246546  0.16976173  0.84754982    -0.39700
C3717       C  0.59483462  0.64006868  0.65353011    -0.13400
C3718       C  0.59460519  0.66139988  0.65112713     0.17000
C3719       C  0.60858359  0.67026396  0.63701562     0.03300
C3720       C  0.62279394  0.65786106  0.62630554    -0.11900
C3721       C  0.62497107  0.63659789  0.63033567    -0.03000
C3722       C  0.60951544  0.62766924  0.64349992     0.02500
C3723       C  0.58058904  0.67374894  0.66465461     0.09300
N3724       N  0.60967127  0.69199174  0.63421705     0.65700
H3725       H  0.63215375  0.66548654  0.61491397     0.18600
N3726       N  0.60805184  0.60601380  0.64688330     0.76200
H3727       H  0.58365352  0.63287581  0.66373880     0.10100
C3728       C  0.56608119  0.68825019  0.65705600     0.03800
C3729       C  0.55339503  0.69916830  0.67078569    -0.04900
C3730       C  0.55398316  0.69521923  0.69190087    -0.23300
C3731       C  0.56776888  0.68024597  0.69947198     0.13100
C3732       C  0.58124082  0.67004955  0.68593978    -0.12400
N3733       N  0.56259829  0.69087139  0.63554582     0.64700
H3734       H  0.54228563  0.71021549  0.66484733     0.12600
N3735       N  0.56737156  0.67435525  0.72058640     0.61400
H3736       H  0.59193688  0.65871465  0.69205976     0.08700
O3737       O  0.59447577  0.59604753  0.63694781    -0.40100
O3738       O  0.61412136  0.59889526  0.66386492    -0.39300
O3739       O  0.61947967  0.70266690  0.64722876    -0.39300
O3740       O  0.60636537  0.69933329  0.61659632    -0.37000
O3741       O  0.55523420  0.66016048  0.72617194    -0.37900
O3742       O  0.58207309  0.67978053  0.73229440    -0.34000
O3743       O  0.55187472  0.67761393  0.62609342    -0.35400
O3744       O  0.56443578  0.70856804  0.62789392    -0.39700
C3745       C  0.67044451  0.60402833  0.66913830    -0.13400
C3746       C  0.68626603  0.59168742  0.66077928     0.17000
C3747       C  0.68928855  0.59230505  0.63928489     0.03300
C3748       C  0.67491504  0.60251694  0.62681910    -0.11900
C3749       C  0.65784858  0.61362398  0.63492604    -0.03000
C3750       C  0.65784707  0.61653510  0.65674846     0.02500
C3751       C  0.69833622  0.57729902  0.67426659     0.09300
N3752       N  0.70717385  0.58320486  0.62974588     0.65700
H3753       H  0.67714597  0.60155675  0.61042053     0.18600
N3754       N  0.64806007  0.63373219  0.66663823     0.76200
H3755       H  0.66808806  0.60460777  0.68554136     0.10100
C3756       C  0.70507769  0.58247208  0.69439812     0.03800
C3757       C  0.71458700  0.56757992  0.70678826    -0.04900
C3758       C  0.71946351  0.54798243  0.69910869    -0.23300
C3759       C  0.71312374  0.54296398  0.67888189     0.13100
C3760       C  0.70191823  0.55718700  0.66722976    -0.12400
N3761       N  0.70352161  0.60293554  0.70227110     0.64700
H3762       H  0.71884777  0.57165444  0.72238239     0.12600
N3763       N  0.71838569  0.52370445  0.66959771     0.61400
H3764       H  0.69606430  0.55232371  0.65241694     0.08700
O3765       O  0.65638355  0.65119172  0.66479641    -0.40100
O3766       O  0.63624531  0.63068808  0.68184465    -0.39300
O3767       O  0.70472625  0.56820352  0.61765040    -0.39300
O3768       O  0.72382121  0.59350865  0.62874374    -0.37000
O3769       O  0.73584094  0.52184893  0.66081189    -0.37900
O3770       O  0.70402420  0.51113081  0.66530052    -0.34000
O3771       O  0.69131597  0.60652144  0.71707883    -0.35400
O3772       O  0.71813284  0.61541003  0.69866610    -0.39700
C3773       C  0.67239004  0.64526437  0.57100107    -0.13400
C3774       C  0.68347932  0.66159163  0.57973658     0.17000
C3775       C  0.68131712  0.66506946  0.60100738     0.03300
C3776       C  0.66837664  0.65233007  0.61281416    -0.11900
C3777       C  0.65638361  0.63617523  0.60419699    -0.03000
C3778       C  0.65993398  0.63202946  0.58275925     0.02500
C3779       C  0.69684042  0.67474155  0.56616564     0.09300
N3780       N  0.69218078  0.68142206  0.61105386     0.65700
H3781       H  0.66732626  0.65548111  0.62904639     0.18600
N3782       N  0.65315076  0.61365894  0.57261472     0.76200
H3783       H  0.67376623  0.64232288  0.55468737     0.10100
C3784       C  0.71131191  0.66607495  0.55210528     0.03800
C3785       C  0.72199181  0.67866098  0.53818691    -0.04900
C3786       C  0.71873576  0.69992459  0.53778460    -0.23300
C3787       C  0.70459747  0.70871314  0.55191608     0.13100
C3788       C  0.69377917  0.69613739  0.56584709    -0.12400
N3789       N  0.71545124  0.64450039  0.55168595     0.64700
H3790       H  0.73287585  0.67173721  0.52745632     0.12600
N3791       N  0.70030503  0.73023187  0.55165831     0.61400
H3792       H  0.68229709  0.70309100  0.57589251     0.08700
O3793       O  0.64147908  0.61519316  0.55707690    -0.40100
O3794       O  0.66379037  0.59749359  0.57472981    -0.39300
O3795       O  0.68222796  0.69737774  0.61613872    -0.39300
O3796       O  0.70949083  0.67775836  0.61951595    -0.37000
O3797       O  0.68494874  0.73676919  0.54146437    -0.37900
O3798       O  0.70863056  0.74174584  0.56495817    -0.34000
O3799       O  0.70855442  0.63385072  0.53693884    -0.35400
O3800       O  0.73018952  0.63749678  0.56243097    -0.39700
C3801       C  0.41710676  0.31400077  0.64080439    -0.13400
C3802       C  0.41337295  0.31433475  0.66198429     0.17000
C3803       C  0.39705556  0.32660056  0.66958348     0.03300
C3804       C  0.38507074  0.33842193  0.65616316    -0.11900
C3805       C  0.38935922  0.33946963  0.63480450    -0.03000
C3806       C  0.40528121  0.32599738  0.62720147     0.02500
C3807       C  0.42727371  0.30269687  0.67606037     0.09300
N3808       N  0.39222285  0.32713666  0.69101620     0.65700
H3809       H  0.37194550  0.34632000  0.66291905     0.18600
N3810       N  0.40990255  0.32423165  0.60575183     0.76200
H3811       H  0.42964636  0.30461572  0.63472509     0.10100
C3812       C  0.43033898  0.28129054  0.67407416     0.03800
C3813       C  0.44421565  0.27114934  0.68720611    -0.04900
C3814       C  0.45522141  0.28195965  0.70236406    -0.23300
C3815       C  0.45211067  0.30329406  0.70447466     0.13100
C3816       C  0.43831837  0.31345512  0.69130501    -0.12400
N3817       N  0.41946417  0.26959362  0.65887626     0.64700
H3818       H  0.44673913  0.25478932  0.68531719     0.12600
N3819       N  0.46300934  0.31485961  0.71977986     0.61400
H3820       H  0.43656295  0.32994505  0.69272743     0.08700
O3821       O  0.42653632  0.33210791  0.59899803    -0.40100
O3822       O  0.40177095  0.30964487  0.59576403    -0.39300
O3823       O  0.39797434  0.34237604  0.70162672    -0.39300
O3824       O  0.37821316  0.31541989  0.69791869    -0.37000
O3825       O  0.47912802  0.32482753  0.71483401    -0.37900
O3826       O  0.45407049  0.31880743  0.73660544    -0.34000
O3827       O  0.42917096  0.26347287  0.64313646    -0.35400
O3828       O  0.40234448  0.26124080  0.66353402    -0.39700
C3829       C  0.32818281  0.38400228  0.64374453    -0.13400
C3830       C  0.33835862  0.39653870  0.65811107     0.17000
C3831       C  0.36012615  0.39499130  0.65999494     0.03300
C3832       C  0.37121344  0.38158992  0.64727234    -0.11900
C3833       C  0.36136830  0.36828559  0.63291169    -0.03000
C3834       C  0.33909195  0.37016946  0.63100947     0.02500
C3835       C  0.32594739  0.41116599  0.67085327     0.09300
N3836       N  0.37138970  0.40695152  0.67473759     0.65700
H3837       H  0.38800943  0.38109983  0.64914109     0.18600
N3838       N  0.32695295  0.35973157  0.61570193     0.76200
H3839       H  0.31138273  0.38510468  0.64219921     0.10100
C3840       C  0.31327843  0.42636975  0.66174015     0.03800
C3841       C  0.30139782  0.43959315  0.67409046    -0.04900
C3842       C  0.30194298  0.43820293  0.69558124    -0.23300
C3843       C  0.31449765  0.42294309  0.70474364     0.13100
C3844       C  0.32626848  0.40956249  0.69236368    -0.12400
N3845       N  0.31284159  0.42905964  0.63997147     0.64700
H3846       H  0.29192482  0.45131674  0.66686403     0.12600
N3847       N  0.31574933  0.42104725  0.72656308     0.61400
H3848       H  0.33561099  0.39776488  0.69960711     0.08700
O3849       O  0.32421784  0.36836957  0.59861900    -0.40100
O3850       O  0.31314732  0.34724742  0.62157885    -0.39300
O3851       O  0.37711011  0.39862002  0.69128467    -0.39300
O3852       O  0.38017144  0.42332424  0.66906567    -0.37000
O3853       O  0.33083714  0.42923077  0.73597657    -0.37900
O3854       O  0.30509293  0.40741470  0.73545530    -0.34000
O3855       O  0.29759953  0.42213935  0.62981405    -0.35400
O3856       O  0.32475879  0.44215338  0.63184927    -0.39700
C3857       C  0.34062924  0.31100654  0.59728447    -0.13400
C3858       C  0.34299970  0.31409887  0.57613509     0.17000
C3859       C  0.35792028  0.32835080  0.56937503     0.03300
C3860       C  0.36891890  0.34024463  0.58357115    -0.11900
C3861       C  0.36506194  0.33919959  0.60495385    -0.03000
C3862       C  0.35192267  0.32271689  0.61166420     0.02500
C3863       C  0.32923601  0.30319386  0.56127776     0.09300
N3864       N  0.36259204  0.33059563  0.54802744     0.65700
H3865       H  0.38101667  0.34985129  0.57731247     0.18600
N3866       N  0.35107264  0.31638233  0.63270204     0.76200
H3867       H  0.32983957  0.29944898  0.60276974     0.10100
C3868       C  0.32754507  0.28157497  0.56073664     0.03800
C3869       C  0.31397820  0.27213932  0.54669345    -0.04900
C3870       C  0.30212962  0.28385809  0.53291950    -0.23300
C3871       C  0.30375153  0.30544295  0.53348520     0.13100
C3872       C  0.31708026  0.31488096  0.54769505    -0.12400
N3873       N  0.34011029  0.26895552  0.57369903     0.64700
H3874       H  0.31298290  0.25552478  0.54623058     0.12600
N3875       N  0.29173616  0.31799790  0.51996229     0.61400
H3876       H  0.31779969  0.33150166  0.54824728     0.08700
O3877       O  0.36206588  0.30126897  0.63816877    -0.40100
O3878       O  0.33574272  0.32146978  0.64375003    -0.39300
O3879       O  0.35643341  0.34642920  0.53868891    -0.39300
O3880       O  0.37684555  0.31975112  0.54016488    -0.37000
O3881       O  0.27457311  0.32525514  0.52612211    -0.37900
O3882       O  0.30036492  0.32567963  0.50434651    -0.34000
O3883       O  0.33171768  0.25960521  0.58850321    -0.35400
O3884       O  0.35797447  0.26348906  0.56762201    -0.39700
C3885       C  0.68350922  0.36461215  0.30093759    -0.13400
C3886       C  0.69339435  0.38085556  0.31109736     0.17000
C3887       C  0.69161209  0.38214458  0.33258020     0.03300
C3888       C  0.67882878  0.36826225  0.34313606    -0.11900
C3889       C  0.66639767  0.35338120  0.33287035    -0.03000
C3890       C  0.67058665  0.35060406  0.31129389     0.02500
C3891       C  0.70371053  0.39709142  0.29857979     0.09300
N3892       N  0.70096627  0.39861368  0.34382379     0.65700
H3893       H  0.67708707  0.37043456  0.35955302     0.18600
N3894       N  0.66328467  0.33349852  0.29938412     0.76200
H3895       H  0.68575773  0.36284894  0.28451618     0.10100
C3896       C  0.72523106  0.40161020  0.29999181     0.03800
C3897       C  0.73385061  0.41719165  0.28778546    -0.04900
C3898       C  0.72165217  0.42786064  0.27343277    -0.23300
C3899       C  0.70032334  0.42291212  0.27155757     0.13100
C3900       C  0.69152401  0.40786886  0.28425660    -0.12400
N3901       N  0.73888027  0.38952066  0.31239336     0.64700
H3902       H  0.75038395  0.42052021  0.28897292     0.12600
N3903       N  0.68758508  0.43247532  0.25633862     0.61400
H3904       H  0.67506270  0.40433455  0.28270751     0.08700
O3905       O  0.65180913  0.33713730  0.28407266    -0.40100
O3906       O  0.67429433  0.31746298  0.29882503    -0.39300
O3907       O  0.69112060  0.41530432  0.34564665    -0.39300
O3908       O  0.71550570  0.39468056  0.35627387    -0.37000
O3909       O  0.68536484  0.42384443  0.23909343    -0.37900
O3910       O  0.67505997  0.44648755  0.26160672    -0.34000
O3911       O  0.74564487  0.37274359  0.30527085    -0.35400
O3912       O  0.74857323  0.39799645  0.32700614    -0.39700
C3913       C  0.71577646  0.31349289  0.41969279    -0.13400
C3914       C  0.69787081  0.30333469  0.41262445     0.17000
C3915       C  0.69302797  0.28364107  0.42002592     0.03300
C3916       C  0.70638001  0.27415907  0.43404627    -0.11900
C3917       C  0.72431153  0.28427064  0.44113383    -0.03000
C3918       C  0.72890910  0.30418598  0.43408202     0.02500
C3919       C  0.68529883  0.31285469  0.39635172     0.09300
N3920       N  0.67431678  0.27339739  0.41387006     0.65700
H3921       H  0.70252379  0.25903060  0.43982333     0.18600
N3922       N  0.74669740  0.31514175  0.44150957     0.76200
H3923       H  0.71957316  0.32864576  0.41394230     0.10100
C3924       C  0.67127413  0.32874696  0.40060501     0.03800
C3925       C  0.66025597  0.33795597  0.38461974    -0.04900
C3926       C  0.66250489  0.33153493  0.36388932    -0.23300
C3927       C  0.67878362  0.31698107  0.35982236     0.13100
C3928       C  0.68909312  0.30725167  0.37604145    -0.12400
N3929       N  0.66850639  0.33619695  0.42108036     0.64700
H3930       H  0.65052432  0.35076587  0.38890844     0.12600
N3931       N  0.68669742  0.31314995  0.33964893     0.61400
H3932       H  0.70107382  0.29596578  0.37267083     0.08700
O3933       O  0.74449211  0.32783235  0.45603738    -0.40100
O3934       O  0.76313518  0.31556676  0.43084242    -0.39300
O3935       O  0.67531693  0.25841869  0.40156670    -0.39300
O3936       O  0.65766402  0.27660405  0.42372682    -0.37000
O3937       O  0.70165475  0.32415607  0.33349921    -0.37900
O3938       O  0.68495448  0.29532293  0.33218990    -0.34000
O3939       O  0.67828770  0.35203218  0.42681010    -0.35400
O3940       O  0.65318553  0.32996819  0.43152131    -0.39700
C3941       C  0.61680682  0.29483825  0.32636435    -0.13400
C3942       C  0.60640004  0.30373124  0.30966732     0.17000
C3943       C  0.61006563  0.32478604  0.30572917     0.03300
C3944       C  0.62361082  0.33594326  0.31826189    -0.11900
C3945       C  0.63567284  0.32680975  0.33390827    -0.03000
C3946       C  0.63174721  0.30547724  0.33801359     0.02500
C3947       C  0.59097461  0.29118807  0.29757406     0.09300
N3948       N  0.60059793  0.33532653  0.28887418     0.65700
H3949       H  0.62549944  0.35215996  0.31500959     0.18600
N3950       N  0.64115509  0.29411518  0.35442962     0.76200
H3951       H  0.61286020  0.27944765  0.33113301     0.10100
C3952       C  0.59395638  0.26995621  0.29328653     0.03800
C3953       C  0.57868097  0.25890621  0.28253368    -0.04900
C3954       C  0.56167377  0.26891147  0.27346271    -0.23300
C3955       C  0.55872576  0.29003278  0.27758379     0.13100
C3956       C  0.57245317  0.30041163  0.29061795    -0.12400
N3957       N  0.61278189  0.25947404  0.29864328     0.64700
H3958       H  0.58071226  0.24251771  0.28038990     0.12600
N3959       N  0.54211543  0.30136526  0.26827769     0.61400
H3960       H  0.56855324  0.31596934  0.29492169     0.08700
O3961       O  0.65205850  0.27863503  0.34983575    -0.40100
O3962       O  0.63251070  0.29422191  0.37181221    -0.39300
O3963       O  0.58851171  0.35024472  0.29241722    -0.39300
O3964       O  0.60776019  0.33282879  0.27098804    -0.37000
O3965       O  0.54502321  0.30924880  0.25083357    -0.37900
O3966       O  0.52728814  0.30786558  0.27928799    -0.34000
O3967       O  0.61218452  0.24531786  0.31183472    -0.35400
O3968       O  0.62836352  0.26076228  0.28686359    -0.39700
C3969       C  0.45310204  0.66963538  0.27648120    -0.13400
C3970       C  0.43650647  0.67888315  0.28713468     0.17000
C3971       C  0.43489071  0.70053709  0.28711999     0.03300
C3972       C  0.44972912  0.71235598  0.27656751    -0.11900
C3973       C  0.46652960  0.70308556  0.26625821    -0.03000
C3974       C  0.46812225  0.68144362  0.26628053     0.02500
C3975       C  0.42300031  0.66565059  0.30020338     0.09300
N3976       N  0.41940747  0.71089386  0.29907328     0.65700
H3977       H  0.44860403  0.72895977  0.27710345     0.18600
N3978       N  0.48513329  0.67119878  0.25639581     0.76200
H3979       H  0.45474913  0.65306423  0.27659707     0.10100
C3980       C  0.40125116  0.66419232  0.29778669     0.03800
C3981       C  0.38955024  0.65193347  0.31120127    -0.04900
C3982       C  0.39889855  0.63963998  0.32662753    -0.23300
C3983       C  0.42126999  0.64105947  0.32854280     0.13100
C3984       C  0.43260296  0.65395882  0.31545030    -0.12400
N3985       N  0.39090863  0.67372687  0.28088449     0.64700
H3986       H  0.37277107  0.65144895  0.30912369     0.12600
N3987       N  0.43322977  0.63092723  0.34407455     0.61400
H3988       H  0.44935963  0.65514461  0.31752701     0.08700
O3989       O  0.48282786  0.66459839  0.23830085    -0.40100
O3990       O  0.49994923  0.66435230  0.26715737    -0.39300
O3991       O  0.42306948  0.71452056  0.31777912    -0.39300
O3992       O  0.40550535  0.72117435  0.29001533    -0.37000
O3993       O  0.44597070  0.61719970  0.33853284    -0.37900
O3994       O  0.43666584  0.64017358  0.36078129    -0.34000
O3995       O  0.39074163  0.66458953  0.26375988    -0.35400
O3996       O  0.37747915  0.68747985  0.28435207    -0.39700
C3997       C  0.36498029  0.67586625  0.37163774    -0.13400
C3998       C  0.34365054  0.67214736  0.37416927     0.17000
C3999       C  0.33483927  0.65585002  0.36261135     0.03300
C4000       C  0.34757486  0.64342923  0.35024869    -0.11900
C4001       C  0.36959016  0.64425577  0.35127809    -0.03000
C4002       C  0.37807143  0.66201837  0.36138522     0.02500
C4003       C  0.33124341  0.68550782  0.38862534     0.09300
N4004       N  0.31316394  0.65078582  0.36380486     0.65700
H4005       H  0.33962730  0.63257269  0.34054557     0.18600
N4006       N  0.39979719  0.66700493  0.36131047     0.76200
H4007       H  0.37190989  0.68961813  0.37800298     0.10100
C4008       C  0.33970184  0.69289142  0.40744916     0.03800
C4009       C  0.32740654  0.70457584  0.42080739    -0.04900
C4010       C  0.30600638  0.70727945  0.41735127    -0.23300
C4011       C  0.29756009  0.70042467  0.39844489     0.13100
C4012       C  0.31050952  0.69086862  0.38391721    -0.12400
N4013       N  0.36011929  0.68733043  0.41431673     0.64700
H4014       H  0.33430167  0.71012197  0.43498632     0.12600
N4015       N  0.27569074  0.70162363  0.39422240     0.61400
H4016       H  0.30384953  0.68694491  0.36918184     0.08700
O4017       O  0.40960340  0.66606440  0.37808367    -0.40100
O4018       O  0.40617754  0.67958765  0.34800851    -0.39300
O4019       O  0.30189084  0.65247672  0.34799966    -0.39300
O4020       O  0.30660784  0.64039832  0.37880695    -0.37000
O4021       O  0.26397169  0.68736024  0.40043131    -0.37900
O4022       O  0.26939478  0.71305243  0.37987753    -0.34000
O4023       O  0.37404747  0.70099606  0.41556492    -0.35400
O4024       O  0.36241582  0.67083912  0.42417735    -0.39700
C4025       C  0.34310432  0.58438636  0.32438929    -0.13400
C4026       C  0.34753997  0.58117832  0.30359384     0.17000
C4027       C  0.36417654  0.59246347  0.29495771     0.03300
C4028       C  0.37478527  0.60733526  0.30667061    -0.11900
C4029       C  0.37013023  0.61122911  0.32767099    -0.03000
C4030       C  0.35496273  0.59773382  0.33665466     0.02500
C4031       C  0.33424430  0.56656539  0.29126471     0.09300
N4032       N  0.37160624  0.58812549  0.27469502     0.65700
H4033       H  0.38779262  0.61470230  0.29918509     0.18600
N4034       N  0.35171928  0.59639016  0.35833383     0.76200
H4035       H  0.33043064  0.57612558  0.33156630     0.10100
C4036       C  0.32718660  0.54753928  0.29926374     0.03800
C4037       C  0.31308519  0.53545796  0.28806088    -0.04900
C4038       C  0.30695270  0.54071652  0.26804499    -0.23300
C4039       C  0.31458244  0.55928062  0.25966871     0.13100
C4040       C  0.32731990  0.57226671  0.27156584    -0.12400
N4041       N  0.33512568  0.53945172  0.31810534     0.64700
H4042       H  0.30759840  0.52122386  0.29476049     0.12600
N4043       N  0.31051251  0.56475632  0.23880614     0.61400
H4044       H  0.33192581  0.58688602  0.26515946     0.08700
O4045       O  0.33425310  0.60181732  0.36550061    -0.40100
O4046       O  0.36201736  0.58307701  0.36808644    -0.39300
O4047       O  0.36968369  0.60154824  0.26088355    -0.39300
O4048       O  0.38451283  0.57370251  0.27213413    -0.37000
O4049       O  0.32249923  0.55806629  0.22493689    -0.37900
O4050       O  0.29915299  0.58012828  0.23505656    -0.34000
O4051       O  0.32294432  0.53739956  0.33320220    -0.35400
O4052       O  0.35190986  0.52931634  0.31775274    -0.39700
C4053       C  0.66540105  0.66318748  0.38701426    -0.13400
C4054       C  0.68714070  0.66301154  0.38573682     0.17000
C4055       C  0.69682440  0.65023729  0.37118298     0.03300
C4056       C  0.68474135  0.63794567  0.35819316    -0.11900
C4057       C  0.66271559  0.63700940  0.35979263    -0.03000
C4058       C  0.65311929  0.65064468  0.37435190     0.02500
C4059       C  0.69941513  0.67530739  0.40060980     0.09300
N4060       N  0.71901753  0.64981224  0.36907172     0.65700
H4061       H  0.69307234  0.62955655  0.34645311     0.18600
N4062       N  0.63094761  0.65233674  0.37660665     0.76200
H4063       H  0.65780684  0.67296237  0.39826600     0.10100
C4064       C  0.69763579  0.69688809  0.40176297     0.03800
C4065       C  0.70849569  0.70774209  0.41698852    -0.04900
C4066       C  0.72125037  0.69742337  0.43110082    -0.23300
C4067       C  0.72296262  0.67586471  0.42996315     0.13100
C4068       C  0.71205239  0.66502360  0.41481555    -0.12400
N4069       N  0.68521108  0.70800738  0.38736181     0.64700
H4070       H  0.70709688  0.72431695  0.41775488     0.12600
N4071       N  0.73570003  0.66476761  0.44410119     0.61400
H4072       H  0.71315538  0.64841919  0.41437745     0.08700
O4073       O  0.62231821  0.64362722  0.39167528    -0.40100
O4074       O  0.62200333  0.66776598  0.36890458    -0.39300
O4075       O  0.72919165  0.63546217  0.37735622    -0.39300
O4076       O  0.72751186  0.66029070  0.35511001    -0.37000
O4077       O  0.72741016  0.65686438  0.45978153    -0.37900
O4078       O  0.75358106  0.65883808  0.43853561    -0.34000
O4079       O  0.66770524  0.71499096  0.39287504    -0.35400
O4080       O  0.69356793  0.71469611  0.37115718    -0.39700
C4081       C  0.58932322  0.67228772  0.28004108    -0.13400
C4082       C  0.59962302  0.68175002  0.29652562     0.17000
C4083       C  0.59771955  0.70315362  0.29935618     0.03300
C4084       C  0.58507337  0.71459009  0.28601979    -0.11900
C4085       C  0.57425656  0.70493722  0.26992647    -0.03000
C4086       C  0.57672252  0.68368469  0.26677091     0.02500
C4087       C  0.61222599  0.66870107  0.31033500     0.09300
N4088       N  0.60758900  0.71326921  0.31626411     0.65700
H4089       H  0.58300512  0.73090029  0.28870924     0.18600
N4090       N  0.56628996  0.67344969  0.25028832     0.76200
H4091       H  0.59093946  0.65588605  0.27759626     0.10100
C4092       C  0.60260830  0.65470200  0.32359848     0.03800
C4093       C  0.61463343  0.64046084  0.33437223    -0.04900
C4094       C  0.63661743  0.63916854  0.33210795    -0.23300
C4095       C  0.64622634  0.65470574  0.31969614     0.13100
C4096       C  0.63394674  0.66884029  0.30880908    -0.12400
N4097       N  0.58053980  0.65513223  0.32676820     0.64700
H4098       H  0.60631831  0.63101746  0.34522172     0.12600
N4099       N  0.66840271  0.65696429  0.31823389     0.61400
H4100       H  0.64148472  0.67992062  0.29887155     0.08700
O4101       O  0.54989939  0.66334357  0.25389628    -0.40100
O4102       O  0.57568598  0.67090459  0.23343688    -0.39300
O4103       O  0.62341766  0.72434212  0.31307502    -0.39300
O4104       O  0.59793912  0.71490332  0.33308955    -0.37000
O4105       O  0.67747226  0.65108223  0.30204251    -0.37900
O4106       O  0.67700996  0.67080616  0.32888108    -0.34000
O4107       O  0.56920567  0.64178216  0.31818725    -0.35400
O4108       O  0.57315136  0.66574191  0.34130457    -0.39700
C4109       C  0.69092551  0.55587269  0.27791615    -0.13400
C4110       C  0.70095759  0.56664885  0.29385000     0.17000
C4111       C  0.72185792  0.56129576  0.29871944     0.03300
C4112       C  0.73204582  0.54571381  0.28767870    -0.11900
C4113       C  0.72212368  0.53556208  0.27138405    -0.03000
C4114       C  0.70138791  0.54077772  0.26650318     0.02500
C4115       C  0.68877967  0.58193578  0.30625245     0.09300
N4116       N  0.73317150  0.57168005  0.31457614     0.65700
H4117       H  0.74795897  0.54169602  0.29163847     0.18600
N4118       N  0.69075348  0.53090461  0.24991541     0.76200
H4119       H  0.67468998  0.55884978  0.27448291     0.10100
C4120       C  0.67572093  0.59688510  0.29723995     0.03800
C4121       C  0.66316744  0.60955293  0.30960093    -0.04900
C4122       C  0.66386035  0.60887163  0.33129319    -0.23300
C4123       C  0.67695401  0.59335053  0.34014053     0.13100
C4124       C  0.68873613  0.58022586  0.32763117    -0.12400
N4125       N  0.67503654  0.59966657  0.27548397     0.64700
H4126       H  0.65246700  0.61961473  0.30173997     0.12600
N4127       N  0.67831129  0.58999057  0.36182305     0.61400
H4128       H  0.69756108  0.56808667  0.33490095     0.08700
O4129       O  0.69122861  0.53893524  0.23231050    -0.40100
O4130       O  0.67741165  0.51717936  0.25372518    -0.39300
O4131       O  0.73724578  0.56226758  0.33101435    -0.39300
O4132       O  0.74357987  0.58749205  0.31009247    -0.37000
O4133       O  0.69393761  0.59697045  0.37136219    -0.37900
O4134       O  0.66914689  0.57450136  0.36916253    -0.34000
O4135       O  0.65890415  0.59428431  0.26572866    -0.35400
O4136       O  0.68757731  0.61212289  0.26727249    -0.39700
C4137       C  0.33433248  0.37113929  0.29824411    -0.13400
C4138       C  0.34069901  0.39153656  0.29618108     0.17000
C4139       C  0.35867426  0.39816275  0.30642542     0.03300
C4140       C  0.36891550  0.38495843  0.31990867    -0.11900
C4141       C  0.36130951  0.36503528  0.32444231    -0.03000
C4142       C  0.34472868  0.35765739  0.31161109     0.02500
C4143       C  0.32751120  0.40617229  0.28475734     0.09300
N4144       N  0.36655438  0.41849378  0.30364568     0.65700
H4145       H  0.38287022  0.39087548  0.32704492     0.18600
N4146       N  0.33789181  0.33673781  0.31179120     0.76200
H4147       H  0.32089549  0.36570474  0.28969269     0.10100
C4148       C  0.33059885  0.41011290  0.26370666     0.03800
C4149       C  0.31793434  0.42444528  0.25367253    -0.04900
C4150       C  0.30237806  0.43506952  0.26444800    -0.23300
C4151       C  0.29912902  0.43101530  0.28540622     0.13100
C4152       C  0.31167196  0.41659693  0.29542353    -0.12400
N4153       N  0.34678153  0.40005390  0.25245136     0.64700
H4154       H  0.32052215  0.42765688  0.23754910     0.12600
N4155       N  0.28328542  0.44166463  0.29664490     0.61400
H4156       H  0.30920772  0.41364146  0.31162031     0.08700
O4157       O  0.34306699  0.32536346  0.29690553    -0.40100
O4158       O  0.32172232  0.33209584  0.32182499    -0.39300
O4159       O  0.36191234  0.43226794  0.31653411    -0.39300
O4160       O  0.38170273  0.42133908  0.29159714    -0.37000
O4161       O  0.26454545  0.43583939  0.29533743    -0.37900
O4162       O  0.28745869  0.45864585  0.30508933    -0.34000
O4163       O  0.34221771  0.38501756  0.24103473    -0.35400
O4164       O  0.36398664  0.40913083  0.24992165    -0.39700
C4165       C  0.32365862  0.33719743  0.37541045    -0.13400
C4166       C  0.33017447  0.31864449  0.38404080     0.17000
C4167       C  0.34994590  0.31099711  0.37871330     0.03300
C4168       C  0.36232263  0.32148401  0.36460479    -0.11900
C4169       C  0.35598952  0.33989675  0.35497185    -0.03000
C4170       C  0.33641526  0.34832686  0.36182481     0.02500
C4171       C  0.31624608  0.30719465  0.39832049     0.09300
N4172       N  0.35822030  0.29293956  0.38814839     0.65700
H4173       H  0.37724235  0.31474624  0.36122513     0.18600
N4174       N  0.32912604  0.36835126  0.35627475     0.76200
H4175       H  0.30851120  0.34338639  0.37945770     0.10100
C4176       C  0.30739644  0.31645495  0.41594700     0.03800
C4177       C  0.29590800  0.30455125  0.42980581    -0.04900
C4178       C  0.29329351  0.28335802  0.42673397    -0.23300
C4179       C  0.30110912  0.27435383  0.40855146     0.13100
C4180       C  0.31218642  0.28634535  0.39446303    -0.12400
N4181       N  0.31092240  0.33760271  0.42071186     0.64700
H4182       H  0.28976114  0.31173710  0.44357953     0.12600
N4183       N  0.29892458  0.25287936  0.40460100     0.61400
H4184       H  0.31821005  0.27913187  0.38066345     0.08700
O4185       O  0.32944147  0.38213089  0.36995491    -0.40100
O4186       O  0.31532849  0.36970297  0.34252411    -0.39300
O4187       O  0.36040858  0.27679901  0.37757644    -0.39300
O4188       O  0.36769149  0.29453461  0.40506917    -0.37000
O4189       O  0.31317955  0.24080117  0.41029297    -0.37900
O4190       O  0.28617550  0.24701581  0.39103903    -0.34000
O4191       O  0.29625092  0.35031136  0.41836110    -0.35400
O4192       O  0.32629855  0.34245753  0.43181586    -0.39700
C4193       C  0.41807831  0.33022537  0.30722687    -0.13400
C4194       C  0.41177757  0.31005032  0.30302363     0.17000
C4195       C  0.39219452  0.30360594  0.31046724     0.03300
C4196       C  0.38004356  0.31689763  0.32245762    -0.11900
C4197       C  0.38657017  0.33702116  0.32771798    -0.03000
C4198       C  0.40547376  0.34395747  0.31828792     0.02500
C4199       C  0.42608476  0.29601963  0.29139308     0.09300
N4200       N  0.38387155  0.28384353  0.30544154     0.65700
H4201       H  0.36499106  0.31119161  0.32721716     0.18600
N4202       N  0.41248746  0.36479996  0.31944947     0.76200
H4203       H  0.43315947  0.33556196  0.30203710     0.10100
C4204       C  0.43692937  0.30262653  0.27359052     0.03800
C4205       C  0.45132458  0.28961358  0.26407314    -0.04900
C4206       C  0.45486250  0.26979994  0.27140163    -0.23300
C4207       C  0.44385294  0.26277147  0.28865020     0.13100
C4208       C  0.42998929  0.27603459  0.29881462    -0.12400
N4209       N  0.43319627  0.32223713  0.26449186     0.64700
H4210       H  0.45962551  0.29491781  0.25057577     0.12600
N4211       N  0.44644124  0.24217507  0.29574596     0.61400
H4212       H  0.42251162  0.27073378  0.31271342     0.08700
O4213       O  0.42672497  0.36933674  0.33206069    -0.40100
O4214       O  0.41061804  0.37576717  0.30360581    -0.39300
O4215       O  0.38284415  0.27030916  0.31924029    -0.39300
O4216       O  0.37263105  0.28197030  0.28963593    -0.37000
O4217       O  0.46029957  0.23807710  0.30886869    -0.37900
O4218       O  0.43654324  0.22774852  0.28717700    -0.34000
O4219       O  0.44729795  0.33575579  0.26539423    -0.35400
O4220       O  0.41924496  0.32376072  0.25091146    -0.39700
C4221       C  0.67993357  0.38374254  0.67081062    -0.13400
C4222       C  0.67532943  0.40439622  0.66811339     0.17000
C4223       C  0.66118140  0.41004583  0.65273450     0.03300
C4224       C  0.65186164  0.39493623  0.64036068    -0.11900
C4225       C  0.65705579  0.37371604  0.64196249    -0.03000
C4226       C  0.67107568  0.36852469  0.65836020     0.02500
C4227       C  0.68691814  0.41962144  0.68059627     0.09300
N4228       N  0.65573273  0.43109647  0.64972896     0.65700
H4229       H  0.63998921  0.40034441  0.62997844     0.18600
N4230       N  0.67646997  0.34790921  0.66334676     0.76200
H4231       H  0.69083589  0.37928793  0.68273791     0.10100
C4232       C  0.68386725  0.42138209  0.70201347     0.03800
C4233       C  0.69722413  0.43378970  0.71376839    -0.04900
C4234       C  0.71374132  0.44435088  0.70446832    -0.23300
C4235       C  0.71674685  0.44261056  0.68309294     0.13100
C4236       C  0.70332587  0.43037082  0.67133751    -0.12400
N4237       N  0.66716962  0.41082616  0.71197336     0.64700
H4238       H  0.69458085  0.43538970  0.73013688     0.12600
N4239       N  0.73373261  0.45281135  0.67323188     0.61400
H4240       H  0.70613937  0.42869903  0.65499827     0.08700
O4241       O  0.69455247  0.34173039  0.65870306    -0.40100
O4242       O  0.66761027  0.33992326  0.67869382    -0.39300
O4243       O  0.66398378  0.44094453  0.63517546    -0.39300
O4244       O  0.63974142  0.43828201  0.65849092    -0.37000
O4245       O  0.75087144  0.44352210  0.67099562    -0.37900
O4246       O  0.73043480  0.46916743  0.66341912    -0.34000
O4247       O  0.67097882  0.39458442  0.72180204    -0.35400
O4248       O  0.65009603  0.42003960  0.71490986    -0.39700
C4249       C  0.62409625  0.31322992  0.66397149    -0.13400
C4250       C  0.60798823  0.32376468  0.67402926     0.17000
C4251       C  0.60669524  0.34520285  0.67139140     0.03300
C4252       C  0.61950351  0.35481615  0.65699196    -0.11900
C4253       C  0.63347489  0.34378976  0.64419591    -0.03000
C4254       C  0.63657165  0.32248684  0.64899219     0.02500
C4255       C  0.59252483  0.31167477  0.68620411     0.09300
N4256       N  0.59242525  0.35764125  0.68285527     0.65700
H4257       H  0.61762711  0.37123013  0.65498208     0.18600
N4258       N  0.65263516  0.30980678  0.64023945     0.76200
H4259       H  0.62703215  0.29729819  0.66769637     0.10100
C4260       C  0.58475413  0.29269762  0.67855120     0.03800
C4261       C  0.57082020  0.28120697  0.69021383    -0.04900
C4262       C  0.56309463  0.28878205  0.70876034    -0.23300
C4263       C  0.57012585  0.30775829  0.71635344     0.13100
C4264       C  0.58537916  0.31868508  0.70549241    -0.12400
N4265       N  0.58980874  0.28534426  0.65842718     0.64700
H4266       H  0.56506649  0.26671665  0.68421555     0.12600
N4267       N  0.56127183  0.31635759  0.73461330     0.61400
H4268       H  0.59142403  0.33267317  0.71218428     0.08700
O4269       O  0.64720052  0.29437715  0.62976839    -0.40100
O4270       O  0.67007979  0.30894253  0.64912909    -0.39300
O4271       O  0.59939351  0.36884639  0.69715459    -0.39300
O4272       O  0.57457989  0.36136637  0.67558347    -0.37000
O4273       O  0.54355216  0.32478853  0.73386754    -0.37900
O4274       O  0.56955154  0.31282383  0.75181957    -0.34000
O4275       O  0.60085701  0.26940103  0.65649294    -0.35400
O4276       O  0.57931561  0.29158632  0.64328735    -0.39700
C4277       C  0.71749388  0.31790416  0.56389828    -0.13400
C4278       C  0.70411517  0.30782487  0.57764894     0.17000
C4279       C  0.70247400  0.28616268  0.57663457     0.03300
C4280       C  0.71383740  0.27519057  0.56188198    -0.11900
C4281       C  0.72698151  0.28534724  0.54803871    -0.03000
C4282       C  0.72900239  0.30686960  0.54929424     0.02500
C4283       C  0.69003517  0.32020076  0.59097220     0.09300
N4284       N  0.68911834  0.27507820  0.59027396     0.65700
H4285       H  0.71211900  0.25864939  0.56097208     0.18600
N4286       N  0.74255172  0.31774328  0.53571292     0.76200
H4287       H  0.71845036  0.33450323  0.56392426     0.10100
C4288       C  0.69721576  0.33611397  0.60384450     0.03800
C4289       C  0.68294657  0.34791152  0.61515730    -0.04900
C4290       C  0.66123860  0.34383940  0.61490203    -0.23300
C4291       C  0.65423219  0.32893998  0.60016386     0.13100
C4292       C  0.66858384  0.31737369  0.58888089    -0.12400
N4293       N  0.71896192  0.34066644  0.60561077     0.64700
H4294       H  0.68932218  0.36056307  0.62383762     0.12600
N4295       N  0.63273442  0.32607081  0.59501244     0.61400
H4296       H  0.66272607  0.30655369  0.57759345     0.08700
O4297       O  0.73497777  0.32684367  0.52034273    -0.40100
O4298       O  0.76082559  0.32205461  0.54151750    -0.39300
O4299       O  0.67195199  0.26818734  0.58369345    -0.39300
O4300       O  0.69658584  0.26794452  0.60669638    -0.37000
O4301       O  0.62578575  0.33548736  0.57953560    -0.37900
O4302       O  0.62410556  0.30935108  0.59983858    -0.34000
O4303       O  0.72609386  0.35659011  0.59711717    -0.35400
O4304       O  0.72947757  0.33210581  0.61954616    -0.39700
C4305       C  0.56904831  0.56644290  0.56989766    -0.13400
C4306       C  0.59076727  0.56855963  0.56781228     0.17000
C4307       C  0.60141158  0.55676434  0.55296138     0.03300
C4308       C  0.59033858  0.54347536  0.54015786    -0.11900
C4309       C  0.56866095  0.54173008  0.54182173    -0.03000
C4310       C  0.55797657  0.55286407  0.55714087     0.02500
C4311       C  0.60257120  0.58209717  0.58187960     0.09300
N4312       N  0.62343305  0.55871186  0.55019044     0.65700
H4313       H  0.59867117  0.53508983  0.52831026     0.18600
N4314       N  0.53614711  0.54972953  0.56044381     0.76200
H4315       H  0.56082881  0.57494273  0.58173445     0.10100
C4316       C  0.60072202  0.60350517  0.58115964     0.03800
C4317       C  0.61365414  0.61568889  0.59340596    -0.04900
C4318       C  0.62881414  0.60723276  0.60688566    -0.23300
C4319       C  0.62951144  0.58523422  0.60828082     0.13100
C4320       C  0.61664462  0.57325207  0.59560729    -0.12400
N4321       N  0.58666678  0.61321830  0.56719645     0.64700
H4322       H  0.61232914  0.63219726  0.59180870     0.12600
N4323       N  0.64237925  0.57426004  0.62241753     0.61400
H4324       H  0.61760629  0.55665323  0.59656224     0.08700
O4325       O  0.52322710  0.56311161  0.55466441    -0.40100
O4326       O  0.52964692  0.53260401  0.56684935    -0.39300
O4327       O  0.63536236  0.54489889  0.55698878    -0.39300
O4328       O  0.63034435  0.57141596  0.53727496    -0.37000
O4329       O  0.63532206  0.57041030  0.64007482    -0.37900
O4330       O  0.65654419  0.56279228  0.61529429    -0.34000
O4331       O  0.56994140  0.62091412  0.57396931    -0.35400
O4332       O  0.59313998  0.61837271  0.54964849    -0.39700
C4333       C  0.39766150  0.39629025  0.58289994    -0.13400
C4334       C  0.41903145  0.39597563  0.58678834     0.17000
C4335       C  0.42643604  0.38432193  0.60338333     0.03300
C4336       C  0.41269170  0.37163719  0.61432300    -0.11900
C4337       C  0.39129338  0.36977887  0.60898597    -0.03000
C4338       C  0.38375810  0.38427383  0.59423993     0.02500
C4339       C  0.43295357  0.40818571  0.57329303     0.09300
N4340       N  0.44753476  0.38620016  0.61023936     0.65700
H4341       H  0.41911164  0.36360271  0.62735060     0.18600
N4342       N  0.36207158  0.38740650  0.59043146     0.76200
H4343       H  0.39158617  0.40615434  0.57091801     0.10100
C4344       C  0.44780424  0.39861206  0.56048040     0.03800
C4345       C  0.45928708  0.41035031  0.54649973    -0.04900
C4346       C  0.45564371  0.43149076  0.54416659    -0.23300
C4347       C  0.44058250  0.44106895  0.55688537     0.13100
C4348       C  0.42963748  0.42941864  0.57144102    -0.12400
N4349       N  0.44994418  0.37676306  0.55994451     0.64700
H4350       H  0.47029676  0.40254318  0.53653821     0.12600
N4351       N  0.43593602  0.46245963  0.55511556     0.61400
H4352       H  0.41799050  0.43688838  0.58095973     0.08700
O4353       O  0.35487600  0.38240110  0.57306970    -0.40100
O4354       O  0.35298471  0.40152121  0.60031657    -0.39300
O4355       O  0.45208502  0.40032380  0.62278108    -0.39300
O4356       O  0.45974910  0.37111838  0.60832724    -0.37000
O4357       O  0.42017688  0.46798106  0.54490030    -0.37900
O4358       O  0.44421207  0.47499221  0.56749281    -0.34000
O4359       O  0.43705417  0.36632616  0.54961710    -0.35400
O4360       O  0.46714521  0.36876068  0.56490663    -0.39700
C4361       C  0.60365075  0.36689384  0.37837757    -0.13400
C4362       C  0.60594527  0.38780733  0.37453858     0.17000
C4363       C  0.62101764  0.39393603  0.36006889     0.03300
C4364       C  0.63367398  0.37922155  0.35028127    -0.11900
C4365       C  0.63313565  0.35805160  0.35556854    -0.03000
C4366       C  0.61641277  0.35213809  0.36899142     0.02500
C4367       C  0.59367404  0.40268114  0.38724446     0.09300
N4368       N  0.62385375  0.41511654  0.35513448     0.65700
H4369       H  0.64389880  0.38492107  0.33844685     0.18600
N4370       N  0.61218450  0.33129955  0.37416760     0.76200
H4371       H  0.59221040  0.36182123  0.38951801     0.10100
C4372       C  0.57177450  0.40095929  0.38957512     0.03800
C4373       C  0.56130967  0.41282041  0.40436331    -0.04900
C4374       C  0.57211419  0.42665067  0.41703841    -0.23300
C4375       C  0.59393234  0.42884903  0.41430179     0.13100
C4376       C  0.60440911  0.41686619  0.39960615    -0.12400
N4377       N  0.55986129  0.38715107  0.37713669     0.64700
H4378       H  0.54456478  0.41108568  0.40598314     0.12600
N4379       N  0.60601954  0.44200280  0.42727635     0.61400
H4380       H  0.62125749  0.41786317  0.39869848     0.08700
O4381       O  0.59799170  0.32214153  0.36428918    -0.40100
O4382       O  0.61578434  0.32565705  0.39236462    -0.39300
O4383       O  0.63914243  0.42470967  0.36274091    -0.39300
O4384       O  0.61465789  0.42244621  0.33967647    -0.37000
O4385       O  0.61347144  0.43496239  0.44375436    -0.37900
O4386       O  0.61314493  0.45858323  0.42015316    -0.34000
O4387       O  0.55228754  0.37118568  0.38517085    -0.35400
O4388       O  0.55245153  0.39348885  0.36036254    -0.39700
C4389       C  0.40619738  0.60048259  0.39001477    -0.13400
C4390       C  0.41795238  0.58494717  0.38074545     0.17000
C4391       C  0.41771579  0.58283685  0.35937135     0.03300
C4392       C  0.40673442  0.59690655  0.34755643    -0.11900
C4393       C  0.39526894  0.61337914  0.35634783    -0.03000
C4394       C  0.39438013  0.61433174  0.37836781     0.02500
C4395       C  0.43028179  0.57095625  0.39367395     0.09300
N4396       N  0.42896072  0.56673394  0.34930726     0.65700
H4397       H  0.40765354  0.59519516  0.33102957     0.18600
N4398       N  0.38060852  0.62755821  0.38960684     0.76200
H4399       H  0.40554877  0.60136362  0.40663480     0.10100
C4400       C  0.44692117  0.57846944  0.40557650     0.03800
C4401       C  0.45863765  0.56496658  0.41744308    -0.04900
C4402       C  0.45374770  0.54396230  0.41821786    -0.23300
C4403       C  0.43665791  0.53648790  0.40667820     0.13100
C4404       C  0.42524603  0.55000937  0.39431789    -0.12400
N4405       N  0.45210549  0.59981715  0.40578808     0.64700
H4406       H  0.47139703  0.57114932  0.42646877     0.12600
N4407       N  0.43066895  0.51535531  0.40726694     0.61400
H4408       H  0.41219477  0.54421263  0.38543472     0.08700
O4409       O  0.38834082  0.63975243  0.40263873    -0.40100
O4410       O  0.36187220  0.62212055  0.39197384    -0.39300
O4411       O  0.41910620  0.55140757  0.34241977    -0.39300
O4412       O  0.44738076  0.56996298  0.34326878    -0.37000
O4413       O  0.41640213  0.50981128  0.41941483    -0.37900
O4414       O  0.43586578  0.50361284  0.39268180    -0.34000
O4415       O  0.44593335  0.61094712  0.42048845    -0.35400
O4416       O  0.46624008  0.60637226  0.39401641    -0.39700
C4417       C  0.60281005  0.54498932  0.39362600    -0.13400
C4418       C  0.59602730  0.56498209  0.38940858     0.17000
C4419       C  0.57637724  0.57149193  0.39641783     0.03300
C4420       C  0.56433931  0.55846573  0.40859354    -0.11900
C4421       C  0.57156455  0.53884977  0.41406740    -0.03000
C4422       C  0.59067459  0.53178653  0.40571457     0.02500
C4423       C  0.60983494  0.57918359  0.37824003     0.09300
N4424       N  0.56880293  0.59162642  0.39198194     0.65700
H4425       H  0.54959657  0.56416461  0.41444334     0.18600
N4426       N  0.59802650  0.51139310  0.40929200     0.76200
H4427       H  0.61774267  0.53975342  0.38778762     0.10100
C4428       C  0.62502660  0.59064162  0.38865693     0.03800
C4429       C  0.63737456  0.60465781  0.37794783    -0.04900
C4430       C  0.63528750  0.60761909  0.35651430    -0.23300
C4431       C  0.62086940  0.59442660  0.34595700     0.13100
C4432       C  0.60798737  0.58102546  0.35700566    -0.12400
N4433       N  0.62866943  0.58763793  0.41008241     0.64700
H4434       H  0.64931882  0.61247808  0.38667446     0.12600
N4435       N  0.61905968  0.59410504  0.32403417     0.61400
H4436       H  0.59670311  0.57164552  0.34885092     0.08700
O4437       O  0.61195969  0.50840032  0.42264423    -0.40100
O4438       O  0.59429570  0.49757297  0.39615864    -0.39300
O4439       O  0.55561478  0.59399959  0.37779737    -0.39300
O4440       O  0.57164367  0.60588929  0.40484713    -0.37000
O4441       O  0.62896355  0.58049151  0.31422604    -0.37900
O4442       O  0.60288567  0.60158387  0.31590036    -0.34000
O4443       O  0.64343920  0.57613559  0.41570833    -0.35400
O4444       O  0.62028542  0.59958152  0.42295612    -0.39700
C4445       C  0.41459263  0.36884950  0.38146548    -0.13400
C4446       C  0.40830811  0.38901698  0.38557506     0.17000
C4447       C  0.38946377  0.39599570  0.37706906     0.03300
C4448       C  0.37794862  0.38307961  0.36418843    -0.11900
C4449       C  0.38541759  0.36376102  0.35739270    -0.03000
C4450       C  0.40341147  0.35603328  0.36801065     0.02500
C4451       C  0.42228089  0.40246625  0.39796672     0.09300
N4452       N  0.38261891  0.41675175  0.37961642     0.65700
H4453       H  0.36375748  0.38933601  0.35806102     0.18600
N4454       N  0.41071155  0.33532500  0.36615044     0.76200
H4455       H  0.42858987  0.36294884  0.38871087     0.10100
C4456       C  0.41558802  0.41247958  0.41609023     0.03800
C4457       C  0.42955517  0.42491483  0.42703059    -0.04900
C4458       C  0.45043594  0.42691682  0.42088234    -0.23300
C4459       C  0.45726829  0.41668295  0.40303952     0.13100
C4460       C  0.44313802  0.40480925  0.39162968    -0.12400
N4461       N  0.39529648  0.40900124  0.42453827     0.64700
H4462       H  0.42426897  0.43230012  0.44104636     0.12600
N4463       N  0.47824847  0.41873021  0.39591551     0.61400
H4464       H  0.44851002  0.39728750  0.37772097     0.08700
O4465       O  0.40752508  0.32342620  0.38109409    -0.40100
O4466       O  0.42647309  0.33188051  0.35503984    -0.39300
O4467       O  0.39085422  0.43054033  0.36871178    -0.39300
O4468       O  0.36501241  0.42013846  0.38764575    -0.37000
O4469       O  0.49119638  0.40457659  0.39945317    -0.37900
O4470       O  0.48239337  0.43196243  0.38239749    -0.34000
O4471       O  0.39188160  0.39248278  0.43405069    -0.35400
O4472       O  0.38332831  0.42411317  0.42754403    -0.39700
C4473       C  0.59716063  0.42365509  0.56810213    -0.13400
C4474       C  0.59694882  0.40220426  0.56593266     0.17000
C4475       C  0.58370582  0.39320439  0.55111623     0.03300
C4476       C  0.57100068  0.40565728  0.53887545    -0.11900
C4477       C  0.57138811  0.42712562  0.54084540    -0.03000
C4478       C  0.58458453  0.43614218  0.55570382     0.02500
C4479       C  0.60914301  0.38951587  0.58056021     0.09300
N4480       N  0.58352404  0.37149986  0.54778886     0.65700
H4481       H  0.56123379  0.39847275  0.52731420     0.18600
N4482       N  0.58453904  0.45781532  0.55920633     0.76200
H4483       H  0.60672395  0.43072399  0.57989379     0.10100
C4484       C  0.63091595  0.39104046  0.58207986     0.03800
C4485       C  0.64158732  0.37998142  0.59715297    -0.04900
C4486       C  0.63120337  0.36748676  0.61180068    -0.23300
C4487       C  0.60894693  0.36536240  0.60930977     0.13100
C4488       C  0.59852996  0.37656429  0.59402827    -0.12400
N4489       N  0.64252260  0.40372079  0.56832929     0.64700
H4490       H  0.65839438  0.38171424  0.59787627     0.12600
N4491       N  0.59624792  0.35148871  0.62087212     0.61400
H4492       H  0.58172060  0.37514045  0.59272111     0.08700
O4493       O  0.59987678  0.46844339  0.55333716    -0.40100
O4494       O  0.57177729  0.46536993  0.57191985    -0.39300
O4495       O  0.56794138  0.36114281  0.55352467    -0.39300
O4496       O  0.59615006  0.36375676  0.53505939    -0.37000
O4497       O  0.59368143  0.33348115  0.61416422    -0.37900
O4498       O  0.58209649  0.35900043  0.63208932    -0.34000
O4499       O  0.64893045  0.42103655  0.57439049    -0.35400
O4500       O  0.65020986  0.39589157  0.55226978    -0.39700
C4501       C  0.40637910  0.64133883  0.65980635    -0.13400
C4502       C  0.40342102  0.66256962  0.65886792     0.17000
C4503       C  0.38908380  0.67020890  0.64440789     0.03300
C4504       C  0.37878025  0.65680129  0.63084269    -0.11900
C4505       C  0.38264005  0.63529621  0.63044667    -0.03000
C4506       C  0.39592833  0.62776114  0.64649813     0.02500
C4507       C  0.41675161  0.67643566  0.67178609     0.09300
N4508       N  0.38434913  0.69163544  0.64353187     0.65700
H4509       H  0.36727024  0.66375518  0.62098885     0.18600
N4510       N  0.39927711  0.60635684  0.64984889     0.76200
H4511       H  0.41731384  0.63508319  0.67081725     0.10100
C4512       C  0.41882812  0.67399239  0.69331408     0.03800
C4513       C  0.43337772  0.68586766  0.70431235    -0.04900
C4514       C  0.44612552  0.70022947  0.69434881    -0.23300
C4515       C  0.44370830  0.70307631  0.67300910     0.13100
C4516       C  0.42922320  0.69121243  0.66199114    -0.12400
N4517       N  0.40640451  0.65948721  0.70430191     0.64700
H4518       H  0.43511158  0.68350421  0.72069379     0.12600
N4519       N  0.45613392  0.71770042  0.66219886     0.61400
H4520       H  0.42833372  0.69303263  0.64548657     0.08700
O4521       O  0.38795457  0.59742026  0.66293227    -0.40100
O4522       O  0.41719182  0.59908967  0.64628345    -0.39300
O4523       O  0.39143384  0.70221774  0.62889872    -0.39300
O4524       O  0.36937182  0.69856746  0.65405834    -0.37000
O4525       O  0.44827931  0.73484260  0.65756795    -0.37900
O4526       O  0.47246225  0.71176209  0.65311266    -0.34000
O4527       O  0.41478336  0.64317148  0.71069296    -0.35400
O4528       O  0.38944752  0.66536061  0.71223556    -0.39700
C4529       C  0.32629099  0.64486509  0.58019253    -0.13400
C4530       C  0.33799642  0.65751689  0.56726302     0.17000
C4531       C  0.35972619  0.65864121  0.57037066     0.03300
C4532       C  0.36914072  0.64692906  0.58578109    -0.11900
C4533       C  0.35770526  0.63366514  0.59887920    -0.03000
C4534       C  0.33553616  0.63266947  0.59541313     0.02500
C4535       C  0.32690240  0.67007543  0.55148909     0.09300
N4536       N  0.37271151  0.67126668  0.55778865     0.65700
H4537       H  0.38592105  0.64814181  0.58752542     0.18600
N4538       N  0.32175865  0.61896696  0.60590389     0.76200
H4539       H  0.30949745  0.64424638  0.57839395     0.10100
C4540       C  0.31151532  0.66148829  0.53839297     0.03800
C4541       C  0.29975227  0.67422433  0.52552926    -0.04900
C4542       C  0.30403415  0.69528781  0.52406368    -0.23300
C4543       C  0.31961492  0.70383975  0.53683009     0.13100
C4544       C  0.33040982  0.69134809  0.55071101    -0.12400
N4545       N  0.30823367  0.63979169  0.53722767     0.64700
H4546       H  0.28768690  0.66747484  0.51598525     0.12600
N4547       N  0.32457407  0.72522813  0.53603646     0.61400
H4548       H  0.34140054  0.69846718  0.56114403     0.08700
O4549       O  0.31879806  0.60126295  0.59854847    -0.40100
O4550       O  0.30774376  0.62658129  0.61723249    -0.39300
O4551       O  0.37991403  0.68776777  0.56514802    -0.39300
O4552       O  0.38132801  0.66347068  0.54217820    -0.37000
O4553       O  0.31777233  0.73703503  0.54991581    -0.37900
O4554       O  0.33973307  0.73103570  0.52513433    -0.34000
O4555       O  0.29135611  0.63232311  0.54385141    -0.35400
O4556       O  0.31923538  0.62930693  0.52500211    -0.39700
C4557       C  0.34429638  0.57337519  0.64138729    -0.13400
C4558       C  0.33062084  0.58363873  0.65456270     0.17000
C4559       C  0.33093090  0.60511583  0.65534682     0.03300
C4560       C  0.34412107  0.61600129  0.64227524    -0.11900
C4561       C  0.35755479  0.60611692  0.62803469    -0.03000
C4562       C  0.35833158  0.58402558  0.62879003     0.02500
C4563       C  0.31807151  0.57141095  0.66906747     0.09300
N4564       N  0.31783921  0.61618105  0.66927634     0.65700
H4565       H  0.34342580  0.63261955  0.64289481     0.18600
N4566       N  0.37423025  0.57181534  0.61916557     0.76200
H4567       H  0.34502369  0.55674204  0.64188609     0.10100
C4568       C  0.30160425  0.55883244  0.66216803     0.03800
C4569       C  0.29170291  0.54553313  0.67590951    -0.04900
C4570       C  0.29831622  0.54422331  0.69639304    -0.23300
C4571       C  0.31478990  0.55680020  0.70328767     0.13100
C4572       C  0.32435080  0.57047647  0.68966605    -0.12400
N4573       N  0.29527153  0.55892811  0.64112539     0.64700
H4574       H  0.27921529  0.53570173  0.67044540     0.12600
N4575       N  0.32295574  0.55475876  0.72357681     0.61400
H4576       H  0.33743718  0.57965487  0.69490682     0.08700
O4577       O  0.39173590  0.57027539  0.62785851    -0.40100
O4578       O  0.36879122  0.55753194  0.60716068    -0.39300
O4579       O  0.32572065  0.62392305  0.68528473    -0.39300
O4580       O  0.30011571  0.62217965  0.66335435    -0.37000
O4581       O  0.33827710  0.54296825  0.72659210    -0.37900
O4582       O  0.31821338  0.56789708  0.73707498    -0.34000
O4583       O  0.30223516  0.54537587  0.62903517    -0.35400
O4584       O  0.27986489  0.56970658  0.63573894    -0.39700
C4585       C  0.39436664  0.58441562  0.57212987    -0.13400
C4586       C  0.41564187  0.58481155  0.57667127     0.17000
C4587       C  0.42282637  0.59878627  0.59158984     0.03300
C4588       C  0.40858730  0.61087977  0.60256357    -0.11900
C4589       C  0.38673921  0.60859117  0.60025470    -0.03000
C4590       C  0.37997142  0.59612863  0.58328032     0.02500
C4591       C  0.43000745  0.57180606  0.56428581     0.09300
N4592       N  0.44455066  0.60064666  0.59619606     0.65700
H4593       H  0.41518507  0.62201138  0.61296208     0.18600
N4594       N  0.35882747  0.59564881  0.57621318     0.76200
H4595       H  0.38879714  0.57516812  0.55939392     0.10100
C4596       C  0.42644364  0.55054727  0.56172849     0.03800
C4597       C  0.43890755  0.53912558  0.54826950    -0.04900
C4598       C  0.45511330  0.54835619  0.53712648    -0.23300
C4599       C  0.45895262  0.56961024  0.53997314     0.13100
C4600       C  0.44634064  0.58105092  0.55336287    -0.12400
N4601       N  0.41022934  0.54025239  0.57271691     0.64700
H4602       H  0.43576705  0.52285651  0.54651119     0.12600
N4603       N  0.47478408  0.58017846  0.52871836     0.61400
H4604       H  0.44883614  0.59746454  0.55455906     0.08700
O4605       O  0.35395398  0.60723231  0.56146260    -0.40100
O4606       O  0.34839876  0.57940556  0.57864477    -0.39300
O4607       O  0.45421519  0.61668034  0.59093195    -0.39300
O4608       O  0.45254012  0.58892994  0.60943562    -0.37000
O4609       O  0.49088118  0.58628021  0.53807134    -0.37900
O4610       O  0.47012362  0.58831486  0.51176600    -0.34000
O4611       O  0.39386568  0.53491863  0.56331804    -0.35400
O4612       O  0.41434277  0.53220875  0.58984561    -0.39700
loop_ 
_geom_bond_atom_site_label_1 
_geom_bond_atom_site_label_2 
_geom_bond_distance 
_geom_bond_site_symmetry_2 
_ccdc_geom_bond_type 
C1         C4505   1.595       .  S
C1         C4533   1.578       .  S
C1         C4561   1.560       .  S
C1         C4589   1.570       .  S
N2            N3   1.320       .  A
N2            N8   1.317       .  A
N2          Mn31   2.220       .  S
N3           C10   1.355       .  A
N4            N6   1.317       .  A
N4            N5   1.318       .  A
N4          Mn20   2.198       .  S
N5           C11   1.350       .  A
N6            N7   1.324       .  A
N6          Mn31   2.216       .  S
N7           C11   1.356       .  A
N8            N9   1.323       .  A
N8          Mn20   2.199       .  S
N9           C10   1.354       .  A
C10        C4346   1.486       .  S
C11        C4458   1.476       .  S
N12          N18   1.315       .  A
N12          N13   1.316       .  A
N12         Mn42   2.193       .  S
N13          C21   1.353       .  A
N14          N15   1.320       .  A
N14          N16   1.314       .  A
N14         Mn20   2.213       .  S
N15          C22   1.357       .  A
N16          N17   1.321       .  A
N16         Mn42   2.189       .  S
N17          C22   1.351       .  A
N18          N19   1.321       .  A
N18         Mn20   2.196       .  S
N19          C21   1.353       .  A
Mn20        Cl44   2.547       .  S
C21        C4402   1.476       .  S
C22        C4598   1.484       .  S
N23          N24   1.323       .  A
N23          N29   1.316       .  A
N23         Mn31   2.229       .  S
N24          C32   1.359       .  A
N25          N27   1.316       .  A
N25          N26   1.322       .  A
N25         Mn43   2.200       .  S
N26          C33   1.353       .  A
N27          N28   1.320       .  A
N27         Mn31   2.211       .  S
N28          C33   1.354       .  A
N29          N30   1.320       .  A
N29         Mn43   2.193       .  S
N30          C32   1.351       .  A
Mn31        Cl44   2.543       .  S
C32        C4374   1.489       .  S
C33        C4477   1.480       .  S
N34          N35   1.319       .  A
N34          N40   1.314       .  A
N34         Mn42   2.189       .  S
N35          C45   1.351       .  A
N36          N37   1.322       .  A
N36          N38   1.314       .  A
N36         Mn43   2.196       .  S
N37          C46   1.354       .  A
N38          N39   1.317       .  A
N38         Mn42   2.199       .  S
N39          C46   1.354       .  A
N40          N41   1.319       .  A
N40         Mn43   2.193       .  S
N41          C45   1.352       .  A
Mn42        Cl44   2.537       .  S
Mn43        Cl44   2.552       .  S
C45        C4309   1.467       .  S
C46        C4421   1.483       .  S
C47        C4225   1.591       .  S
C47        C4253   1.557       .  S
C47        C4290   1.567       .  S
C47        C4486   1.578       .  S
C48        C4141   1.570       .  S
C48        C4169   1.572       .  S
C48        C4197   1.570       .  S
C48        C4449   1.574       .  S
C49        C4057   1.567       .  S
C49        C4094   1.572       .  S
C49        C4122   1.572       .  S
C49        C4430   1.566       .  S
C50        C3982   1.575       .  S
C50        C4001   1.574       .  S
C50        C4029   1.595       .  S
C50        C4393   1.555       .  S
C51        C3889   1.581       .  S
C51        C3926   1.565       .  S
C51        C3945   1.558       .  S
C51        C4365   1.596       .  S
C52        C3805   1.576       .  S
C52        C3833   1.572       .  S
C52        C3861   1.566       .  S
C52        C4337   1.580       .  S
C53        C3721   1.574       .  S
C53        C3749   1.568       .  S
C53        C3777   1.586       .  S
C53        C4318   1.565       .  S
N54          C59   1.353       .  A
N54          C58   1.353       .  A
N54          H86   1.038       .  S
N55          C62   1.350       .  A
N55          C63   1.352       .  A
N56          C61   1.353       .  A
N56          C60   1.354       .  A
N56          H87   1.040       .  S
N57          C64   1.350       .  A
N57          C65   1.350       .  A
C58          C66   1.387       .  A
C58          C74   1.416       .  A
C59          C75   1.416   1_556  A
C59          C67   1.387       .  A
C60          C68   1.388       .  A
C60          C77   1.420       .  A
C61          C76   1.413   1_556  A
C61          C69   1.385       .  A
C62          C74   1.410       .  A
C62          C70   1.385       .  A
C63          C77   1.414       .  A
C63          C71   1.385       .  A
C64          C72   1.387       .  A
C64          C75   1.411       .  A
C65          C73   1.386       .  A
C65          C76   1.409       .  A
C66          C67   1.377       .  A
C66          H78   1.082       .  S
C67          H79   1.082   1_556  S
C68          C69   1.376       .  A
C68          H80   1.082       .  S
C69          H81   1.082   1_556  S
C70          C71   1.376       .  A
C70          H82   1.082       .  S
C71          H83   1.082       .  S
C72          C73   1.375       .  A
C72          H84   1.082       .  S
C73          H85   1.082       .  S
C74        C3693   1.488       .  S
C75        C3637   1.484       .  S
C76        C3665   1.485       .  S
C77        C3609   1.503       .  S
N88          C93   1.356   1_565  A
N88          C92   1.357       .  A
N88         H120   1.038       .  S
N89          C96   1.355       .  A
N89          C97   1.354       .  A
N90          C95   1.356   1_565  A
N90          C94   1.355       .  A
N90         H121   1.034       .  S
N91          C98   1.351       .  A
N91          C99   1.353       .  A
C92         C100   1.385       .  A
C92         C108   1.422       .  A
C93         C109   1.421       .  A
C93         C101   1.387   1_545  A
C94         C102   1.388       .  A
C94         C111   1.423       .  A
C95         C110   1.421       .  A
C95         C103   1.387       .  A
C96         C108   1.422       .  A
C96         C104   1.387       .  A
C97         C111   1.418       .  A
C97         C105   1.385       .  A
C98         C106   1.387       .  A
C98         C109   1.416       .  A
C99         C107   1.386       .  A
C99         C110   1.416       .  A
C100        C101   1.374       .  A
C100        H112   1.082       .  S
C101        H113   1.080   1_565  S
C102        C103   1.377   1_565  A
C102        H114   1.082       .  S
C103        H115   1.082       .  S
C104        C105   1.374       .  A
C104        H116   1.082       .  S
C105        H117   1.082       .  S
C106        C107   1.372       .  A
C106        H118   1.082       .  S
C107        H119   1.082       .  S
C108       C3506   1.512       .  S
C109       C3562   1.490       .  S
C110       C3534   1.493       .  S
C111       C3581   1.495       .  S
N122        C127   1.352       .  A
N122        C126   1.353   1_455  A
N122        H154   1.037       .  S
N123        C130   1.349       .  A
N123        C131   1.349       .  A
N124        C129   1.358       .  A
N124        C128   1.358   1_455  A
N124        H155   1.030       .  S
N125        C132   1.355       .  A
N125        C133   1.354       .  A
C126        C134   1.387   1_655  A
C126        C142   1.412       .  A
C127        C143   1.413       .  A
C127        C135   1.387       .  A
C128        C136   1.387       .  A
C128        C145   1.431       .  A
C129        C144   1.430       .  A
C129        C137   1.387       .  A
C130        C142   1.406       .  A
C130        C138   1.384       .  A
C131        C145   1.413       .  A
C131        C139   1.388       .  A
C132        C140   1.383       .  A
C132        C143   1.417       .  A
C133        C141   1.390       .  A
C133        C144   1.428       .  A
C134        C135   1.375       .  A
C134        H146   1.082   1_455  S
C135        H147   1.082       .  S
C136        C137   1.370   1_655  A
C136        H148   1.081       .  S
C137        H149   1.078       .  S
C138        C139   1.372       .  A
C138        H150   1.083       .  S
C139        H151   1.082       .  S
C140        C141   1.370       .  A
C140        H152   1.082       .  S
C141        H153   1.081       .  S
C142       C3441   1.480       .  S
C143       C3385   1.493       .  S
C144       C3469   1.505       .  S
C145       C3413   1.499       .  S
N156        C161   1.354       .  A
N156        C160   1.353       .  A
N156        H188   1.037       .  S
N157        C164   1.353       .  A
N157        C165   1.353       .  A
N158        C163   1.357       .  A
N158        C162   1.356       .  A
N158        H189   1.034       .  S
N159        C166   1.348       .  A
N159        C167   1.348       .  A
C160        C168   1.388       .  A
C160        C176   1.418       .  A
C161        C177   1.412       .  A
C161        C169   1.385       .  A
C162        C170   1.389       .  A
C162        C179   1.425       .  A
C163        C178   1.420       .  A
C163        C171   1.386       .  A
C164        C176   1.423       .  A
C164        C172   1.388       .  A
C165        C179   1.421       .  A
C165        C173   1.385       .  A
C166        C174   1.385       .  A
C166        C177   1.408       .  A
C167        C175   1.387       .  A
C167        C178   1.411       .  A
C168        C169   1.370       .  A
C168        H180   1.082       .  S
C169        H181   1.082       .  S
C170        C171   1.373       .  A
C170        H182   1.082       .  S
C171        H183   1.082       .  S
C172        C173   1.371       .  A
C172        H184   1.079       .  S
C173        H185   1.080       .  S
C174        C175   1.371       .  A
C174        H186   1.082       .  S
C175        H187   1.082       .  S
C176       C3954   1.497       .  S
C177       C4206   1.480       .  S
C178       C3366   1.487       .  S
C179       C3338   1.499       .  S
N190        C195   1.364       .  A
N190        C194   1.363       .  A
N190        H222   1.033       .  S
N191        C198   1.351       .  A
N191        C199   1.352       .  A
N192        C197   1.352       .  A
N192        C196   1.352       .  A
N192        H223   1.041       .  S
N193        C200   1.349       .  A
N193        C201   1.351       .  A
C194        C202   1.388       .  A
C194        C210   1.440       .  A
C195        C211   1.443       .  A
C195        C203   1.388       .  A
C196        C204   1.388       .  A
C196        C213   1.413       .  A
C197        C212   1.411       .  A
C197        C205   1.386       .  A
C198        C210   1.421       .  A
C198        C206   1.389       .  A
C199        C213   1.412       .  A
C199        C207   1.383       .  A
C200        C208   1.386       .  A
C200        C211   1.413       .  A
C201        C209   1.382       .  A
C201        C212   1.405       .  A
C202        C203   1.369       .  A
C202        H214   1.079       .  S
C203        H215   1.080       .  S
C204        C205   1.377       .  A
C204        H216   1.082       .  S
C205        H217   1.082       .  S
C206        C207   1.373       .  A
C206        H218   1.082       .  S
C207        H219   1.082       .  S
C208        C209   1.377       .  A
C208        H220   1.082       .  S
C209        H221   1.082       .  S
C210       C3282   1.511       .  S
C211       C3310   1.544       .  S
C212       C4178   1.492       .  S
C213       C3870   1.490       .  S
N224        C229   1.352       .  A
N224        C228   1.355       .  A
N224        H256   1.039       .  S
N225        C232   1.355       .  A
N225        C233   1.351       .  A
N226        C231   1.356       .  A
N226        C230   1.353       .  A
N226        H257   1.036       .  S
N227        C234   1.349       .  A
N227        C235   1.350       .  A
C228        C236   1.388       .  A
C228        C244   1.420       .  A
C229        C245   1.413       .  A
C229        C237   1.386       .  A
C230        C238   1.388       .  A
C230        C247   1.419       .  A
C231        C246   1.419       .  A
C231        C239   1.386       .  A
C232        C244   1.417       .  A
C232        C240   1.385       .  A
C233        C247   1.415       .  A
C233        C241   1.386       .  A
C234        C242   1.387       .  A
C234        C245   1.409       .  A
C235        C243   1.386       .  A
C235        C246   1.411       .  A
C236        C237   1.375       .  A
C236        H248   1.082       .  S
C237        H249   1.082       .  S
C238        C239   1.376       .  A
C238        H250   1.082       .  S
C239        H251   1.082       .  S
C240        C241   1.375       .  A
C240        H252   1.082       .  S
C241        H253   1.082       .  S
C242        C243   1.374       .  A
C242        H254   1.082       .  S
C243        H255   1.082       .  S
C244       C4038   1.507       .  S
C245       C4150   1.479       .  S
C246       C3217   1.490       .  S
C247       C3254   1.486       .  S
N258        C263   1.358       .  A
N258        C262   1.359   1_556  A
N258        H290   1.013       .  S
N259        C266   1.355       .  A
N259        C267   1.354       .  A
N260        C265   1.358       .  A
N260        C264   1.357   1_556  A
N260        H291   1.022       .  S
N261        C268   1.355       .  A
N261        C269   1.355       .  A
C262        C270   1.387   1_554  A
C262        C278   1.427       .  A
C263        C279   1.427       .  A
C263        C271   1.387       .  A
C264        C272   1.387       .  A
C264        C281   1.421       .  A
C265        C280   1.422       .  A
C265        C273   1.387       .  A
C266        C278   1.422       .  A
C266        C274   1.387       .  A
C267        C281   1.418       .  A
C267        C275   1.386       .  A
C268        C276   1.388       .  A
C268        C279   1.424       .  A
C269        C277   1.385       .  A
C269        C280   1.420       .  A
C270        C271   1.374       .  A
C270        H282   1.082   1_556  S
C271        H283   1.081       .  S
C272        C273   1.376   1_554  A
C272        H284   1.082       .  S
C273        H285   1.082       .  S
C274        C275   1.375       .  A
C274        H286   1.082       .  S
C275        H287   1.082       .  S
C276        C277   1.375       .  A
C276        H288   1.082       .  S
C277        H289   1.082       .  S
C278       C3105   1.502       .  S
C279       C3133   1.500       .  S
C280       C3198   1.498       .  S
C281       C3161   1.493       .  S
N292        C297   1.352       .  A
N292        C296   1.352       .  A
N292        H324   1.047       .  S
N293        C300   1.352       .  A
N293        C301   1.352       .  A
N294        C299   1.350       .  A
N294        C298   1.350       .  A
N294        H325   1.047       .  S
N295        C302   1.348       .  A
N295        C303   1.349       .  A
C296        C304   1.389       .  A
C296        C312   1.419   1_556  A
C297        C313   1.419       .  A
C297        C305   1.389       .  A
C298        C306   1.389       .  A
C298        C315   1.415   1_556  A
C299        C314   1.411       .  A
C299        C307   1.387       .  A
C300        C312   1.417       .  A
C300        C308   1.387       .  A
C301        C315   1.415       .  A
C301        C309   1.385       .  A
C302        C310   1.388       .  A
C302        C313   1.410       .  A
C303        C311   1.385       .  A
C303        C314   1.408       .  A
C304        C305   1.376       .  A
C304        H316   1.082       .  S
C305        H317   1.082       .  S
C306        C307   1.373       .  A
C306        H318   1.082   1_556  S
C307        H319   1.083       .  S
C308        C309   1.373       .  A
C308        H320   1.082       .  S
C309        H321   1.082       .  S
C310        C311   1.369       .  A
C310        H322   1.082       .  S
C311        H323   1.082       .  S
C312       C3058   1.486       .  S
C313       C3077   1.478       .  S
C314       C3030   1.477       .  S
C315       C2993   1.486       .  S
N326        C331   1.354   1_455  A
N326        C330   1.354       .  A
N326        H358   1.038       .  S
N327        C334   1.349       .  A
N327        C335   1.350       .  A
N328        C333   1.354   1_455  A
N328        C332   1.358       .  A
N328        H359   1.037       .  S
N329        C336   1.353       .  A
N329        C337   1.351       .  A
C330        C338   1.388       .  A
C330        C346   1.421       .  A
C331        C347   1.417       .  A
C331        C339   1.385       .  A
C332        C340   1.385       .  A
C332        C349   1.419       .  A
C333        C348   1.424       .  A
C333        C341   1.390       .  A
C334        C346   1.412       .  A
C334        C342   1.388       .  A
C335        C349   1.406       .  A
C335        C343   1.383       .  A
C336        C344   1.384       .  A
C336        C347   1.414       .  A
C337        C345   1.387       .  A
C337        C348   1.415       .  A
C338        C339   1.378   1_455  A
C338        H350   1.082       .  S
C339        H351   1.082       .  S
C340        C341   1.375   1_455  A
C340        H352   1.082       .  S
C341        H353   1.081       .  S
C342        C343   1.374       .  A
C342        H354   1.082       .  S
C343        H355   1.082       .  S
C344        C345   1.372       .  A
C344        H356   1.082       .  S
C345        H357   1.081       .  S
C346       C2974   1.496       .  S
C347       C2946   1.494       .  S
C348       C2918   1.487       .  S
C349       C2890   1.494       .  S
N360        C365   1.356       .  A
N360        C364   1.358       .  A
N360        H392   1.035       .  S
N361        C368   1.353       .  A
N361        C369   1.351       .  A
N362        C367   1.361       .  A
N362        C366   1.357       .  A
N362        H393   1.039       .  S
N363        C370   1.354       .  A
N363        C371   1.356       .  A
C364        C372   1.387       .  A
C364        C380   1.422       .  A
C365        C381   1.422       .  A
C365        C373   1.388       .  A
C366        C374   1.390       .  A
C366        C383   1.425       .  A
C367        C382   1.422       .  A
C367        C375   1.383       .  A
C368        C380   1.418       .  A
C368        C376   1.386       .  A
C369        C383   1.416       .  A
C369        C377   1.387       .  A
C370        C378   1.387       .  A
C370        C381   1.421       .  A
C371        C379   1.386       .  A
C371        C382   1.423       .  A
C372        C373   1.373       .  A
C372        H384   1.082       .  S
C373        H385   1.082       .  S
C374        C375   1.369       .  A
C374        H386   1.080       .  S
C375        H387   1.082       .  S
C376        C377   1.370       .  A
C376        H388   1.082       .  S
C377        H389   1.082       .  S
C378        C379   1.370       .  A
C378        H390   1.082       .  S
C379        H391   1.082       .  S
C380       C3898   1.497       .  S
C381       C4113   1.494       .  S
C382       C2825   1.513       .  S
C383       C2862   1.491       .  S
N394        C399   1.355       .  A
N394        C398   1.352       .  A
N394        H426   1.035       .  S
N395        C402   1.352       .  A
N395        C403   1.353       .  A
N396        C401   1.355       .  A
N396        C400   1.356       .  A
N396        H427   1.037       .  S
N397        C404   1.354       .  A
N397        C405   1.352       .  A
C398        C406   1.387       .  A
C398        C414   1.416       .  A
C399        C415   1.420       .  A
C399        C407   1.388       .  A
C400        C408   1.386       .  A
C400        C417   1.418       .  A
C401        C416   1.419       .  A
C401        C409   1.388       .  A
C402        C414   1.416       .  A
C402        C410   1.387       .  A
C403        C417   1.416       .  A
C403        C411   1.386       .  A
C404        C412   1.386       .  A
C404        C415   1.417       .  A
C405        C413   1.387       .  A
C405        C416   1.416       .  A
C406        C407   1.375       .  A
C406        H418   1.082       .  S
C407        H419   1.082       .  S
C408        C409   1.374       .  A
C408        H420   1.082       .  S
C409        H421   1.082       .  S
C410        C411   1.375       .  A
C410        H422   1.082       .  S
C411        H423   1.082       .  S
C412        C413   1.375       .  A
C412        H424   1.082       .  S
C413        H425   1.082       .  S
C414       C4570   1.485       .  S
C415       C3842   1.496       .  S
C416       C2797   1.491       .  S
C417       C2778   1.495       .  S
C428       C2657   1.573       .  S
C428       C2685   1.580       .  S
C428       C2713   1.579       .  S
C428       C2741   1.561       .  S
N429        N430   1.320       .  A
N429        N435   1.314       .  A
N429       Mn458   2.207   1_655  S
N430        C437   1.354       .  A
N431        N433   1.317       .  A
N431        N432   1.321       .  A
N431       Mn447   2.206   1_554  S
N432        C438   1.354       .  A
N433        N434   1.321       .  A
N433       Mn458   2.213   1_654  S
N434        C438   1.355       .  A
N435        N436   1.321       .  A
N435       Mn447   2.190       .  S
N436        C437   1.351       .  A
C437       C2750   1.474       .  S
C438       C2526   1.488       .  S
N439        N445   1.318       .  A
N439        N440   1.321       .  A
N439       Mn469   2.219   1_654  S
N440        C448   1.355       .  A
N441        N442   1.315       .  A
N441        N443   1.314       .  A
N441       Mn447   2.178       .  S
N442        C449   1.348       .  A
N443        N444   1.322       .  A
N443       Mn469   2.205   1_655  S
N444        C449   1.356       .  A
N445        N446   1.322       .  A
N445       Mn447   2.203   1_554  S
N446        C448   1.353       .  A
Mn447      Cl471   2.545   1_655  S
C448       C2629   1.485       .  S
C449       C2545   1.472       .  S
N450        N451   1.320       .  A
N450        N456   1.318       .  A
N450       Mn458   2.211   1_554  S
N451        C459   1.353       .  A
N452        N454   1.315       .  A
N452        N453   1.321       .  A
N452       Mn470   2.196       .  S
N453        C460   1.353       .  A
N454        N455   1.320       .  A
N454       Mn458   2.210       .  S
N455        C460   1.355       .  A
N456        N457   1.322       .  A
N456       Mn470   2.206   1_554  S
N457        C459   1.353       .  A
Mn458      Cl471   2.544       .  S
C459       C2498   1.483       .  S
C460       C2582   1.486       .  S
N461        N462   1.324       .  A
N461        N467   1.315       .  A
N461       Mn469   2.215       .  S
N462        C472   1.357       .  A
N463        N464   1.319       .  A
N463        N465   1.317       .  A
N463       Mn470   2.212   1_554  S
N464        C473   1.354       .  A
N465        N466   1.324       .  A
N465       Mn469   2.215   1_554  S
N466        C473   1.355       .  A
N467        N468   1.316       .  A
N467       Mn470   2.188       .  S
N468        C472   1.350       .  A
Mn469      Cl471   2.554       .  S
Mn470      Cl471   2.546       .  S
C472       C2610   1.481       .  S
C473       C2461   1.490       .  S
C474       C2638   1.578       .  S
C474       C2853   1.565       .  S
C474       C3049   1.559       .  S
C474       C3450   1.585       .  S
C475       C2601   1.597       .  S
C475       C2806   1.569       .  S
C475       C2965   1.572       .  S
C475       C3618   1.622       .  S
C476       C2433   1.562       .  S
C476       C2573   1.583       .  S
C476       C2769   1.575       .  S
C476       C3142   1.579       .  S
C477       C2405   1.592       .  S
C477       C2554   1.556       .  S
C477       C2937   1.580       .  S
C477       C3086   1.566       .  S
C478       C2349   1.592       .  S
C478       C2386   1.591       .  S
C478       C2517   1.581       .  S
C478       C2834   1.581       .  S
N479        C484   1.351       .  A
N479        C483   1.350       .  A
N479        H511   1.040       .  S
N480        C487   1.353       .  A
N480        C488   1.352       .  A
N481        C486   1.356       .  A
N481        C485   1.357       .  A
N481        H512   1.036       .  S
N482        C489   1.355       .  A
N482        C490   1.352       .  A
C483        C491   1.387       .  A
C483        C499   1.408       .  A
C484        C500   1.411       .  A
C484        C492   1.386       .  A
C485        C493   1.386       .  A
C485        C502   1.422       .  A
C486        C501   1.423       .  A
C486        C494   1.388       .  A
C487        C499   1.413       .  A
C487        C495   1.384       .  A
C488        C502   1.419       .  A
C488        C496   1.388       .  A
C489        C497   1.385       .  A
C489        C500   1.418       .  A
C490        C498   1.387       .  A
C490        C501   1.418       .  A
C491        C492   1.375       .  A
C491        H503   1.082       .  S
C492        H504   1.082       .  S
C493        C494   1.375       .  A
C493        H505   1.082       .  S
C494        H506   1.081       .  S
C495        C496   1.377       .  A
C495        H507   1.082       .  S
C496        H508   1.082       .  S
C497        C498   1.373       .  A
C497        H509   1.081       .  S
C498        H510   1.081       .  S
C499       C4234   1.484       .  S
C500       C3758   1.502       .  S
C501       C2722   1.493       .  S
C502       C2414   1.499       .  S
C513       C2321   1.566       .  S
C513       C2489   1.570       .  S
C513       C3114   1.580       .  S
C513       C3245   1.591       .  S
C514       C2470   1.581       .  S
C514       C3226   1.570       .  S
C514       C3394   1.561       .  S
C514       C3674   1.587       .  S
N515        C520   1.357   1_565  A
N515        C519   1.356       .  A
N515        H547   1.039       .  S
N516        C523   1.353       .  A
N516        C524   1.353       .  A
N517        C522   1.358   1_565  A
N517        C521   1.358       .  A
N517        H548   1.038       .  S
N518        C525   1.354       .  A
N518        C526   1.354       .  A
C519        C527   1.387       .  A
C519        C535   1.424       .  A
C520        C536   1.421       .  A
C520        C528   1.387   1_545  A
C521        C529   1.386       .  A
C521        C538   1.423       .  A
C522        C537   1.428       .  A
C522        C530   1.388   1_545  A
C523        C535   1.416       .  A
C523        C531   1.384       .  A
C524        C538   1.417       .  A
C524        C532   1.388       .  A
C525        C533   1.387       .  A
C525        C536   1.418       .  A
C526        C534   1.385       .  A
C526        C537   1.419       .  A
C527        C528   1.374       .  A
C527        H539   1.082       .  S
C528        H540   1.080   1_565  S
C529        C530   1.375       .  A
C529        H541   1.080       .  S
C530        H542   1.082   1_565  S
C531        C532   1.374       .  A
C531        H543   1.082       .  S
C532        H544   1.081       .  S
C533        C534   1.375       .  A
C533        H545   1.081       .  S
C534        H546   1.082       .  S
C535       C2293   1.508       .  S
C536       C2265   1.500       .  S
C537       C2237   1.513       .  S
C538       C2209   1.499       .  S
N549        C554   1.353       .  A
N549        C553   1.352       .  A
N549        H581   1.040       .  S
N550        C557   1.351       .  A
N550        C558   1.352       .  A
N551        C556   1.354       .  A
N551        C555   1.357       .  A
N551        H582   1.039       .  S
N552        C559   1.353       .  A
N552        C560   1.352       .  A
C553        C561   1.387       .  A
C553        C569   1.412       .  A
C554        C570   1.414       .  A
C554        C562   1.386       .  A
C555        C563   1.389       .  A
C555        C572   1.425       .  A
C556        C571   1.417       .  A
C556        C564   1.385       .  A
C557        C569   1.408       .  A
C557        C565   1.384       .  A
C558        C572   1.416       .  A
C558        C566   1.387       .  A
C559        C567   1.386       .  A
C559        C570   1.415       .  A
C560        C568   1.386       .  A
C560        C571   1.415       .  A
C561        C562   1.377       .  A
C561        H573   1.082       .  S
C562        H574   1.082       .  S
C563        C564   1.378       .  A
C563        H575   1.082       .  S
C564        H576   1.082       .  S
C565        C566   1.377       .  A
C565        H577   1.082       .  S
C566        H578   1.082       .  S
C567        C568   1.375       .  A
C567        H579   1.082       .  S
C568        H580   1.082       .  S
C569       C4085   1.484       .  S
C570       C3973   1.496       .  S
C571       C2162   1.491       .  S
C572       C2181   1.509       .  S
N583        C588   1.351       .  A
N583        C587   1.351       .  A
N583        H615   1.038       .  S
N584        C591   1.348       .  A
N584        C592   1.349       .  A
N585        C590   1.355       .  A
N585        C589   1.355       .  A
N585        H616   1.035       .  S
N586        C593   1.353       .  A
N586        C594   1.352       .  A
C587        C595   1.387       .  A
C587        C603   1.410       .  A
C588        C604   1.411       .  A
C588        C596   1.387       .  A
C589        C597   1.388       .  A
C589        C606   1.424       .  A
C590        C605   1.420       .  A
C590        C598   1.387       .  A
C591        C603   1.405       .  A
C591        C599   1.385       .  A
C592        C606   1.412       .  A
C592        C600   1.387       .  A
C593        C601   1.384       .  A
C593        C604   1.413       .  A
C594        C602   1.388       .  A
C594        C605   1.419       .  A
C595        C596   1.371       .  A
C595        H607   1.082       .  S
C596        H608   1.082       .  S
C597        C598   1.376       .  A
C597        H609   1.082       .  S
C598        H610   1.080       .  S
C599        C600   1.370       .  A
C599        H611   1.082       .  S
C600        H612   1.082       .  S
C601        C602   1.373       .  A
C601        H613   1.082       .  S
C602        H614   1.082       .  S
C603       C4262   1.475       .  S
C604       C3814   1.487       .  S
C605       C2106   1.492       .  S
C606       C2125   1.494       .  S
C617       C2041   1.579       .  S
C617       C2078   1.574       .  S
C617       C2134   1.577       .  S
C617       C3021   1.554       .  S
N618        N619   1.323       .  A
N618        N624   1.317       .  A
N618       Mn647   2.218       .  S
N619        C626   1.356       .  A
N620        N622   1.318       .  A
N620        N621   1.321       .  A
N620       Mn636   2.217   1_554  S
N621        C627   1.354       .  A
N622        N623   1.325       .  A
N622       Mn647   2.219   1_554  S
N623        C627   1.356       .  A
N624        N625   1.319       .  A
N624       Mn636   2.190       .  S
N625        C626   1.350       .  A
C626       C1938   1.480       .  S
C627       C2013   1.491       .  S
N628        N634   1.315       .  A
N628        N629   1.319       .  A
N628       Mn658   2.203   1_554  S
N629        C637   1.354       .  A
N630        N631   1.326       .  A
N630        N632   1.318       .  A
N630       Mn636   2.224   1_545  S
N631        C638   1.358       .  A
N632        N633   1.318       .  A
N632       Mn658   2.207       .  S
N633        C638   1.352       .  A
N634        N635   1.321       .  A
N634       Mn636   2.193   1_544  S
N635        C637   1.352       .  A
Mn636      Cl660   2.548       .  S
C637       C1845   1.479       .  S
C638       C2069   1.487       .  S
N639        N640   1.322       .  A
N639        N645   1.316       .  A
N639       Mn647   2.220   1_554  S
N640        C648   1.357       .  A
N641        N643   1.317       .  A
N641        N642   1.318       .  A
N641       Mn659   2.196       .  S
N642        C649   1.352       .  A
N643        N644   1.321       .  A
N643       Mn647   2.211       .  S
N644        C649   1.354       .  A
N645        N646   1.318       .  A
N645       Mn659   2.181   1_554  S
N646        C648   1.348       .  A
Mn647      Cl660   2.559       .  S
C648       C1910   1.479       .  S
C649       C1994   1.480       .  S
N650        N651   1.324       .  A
N650        N656   1.315       .  A
N650       Mn658   2.210       .  S
N651        C661   1.355       .  A
N652        N653   1.320       .  A
N652        N654   1.315       .  A
N652       Mn659   2.200   1_544  S
N653        C662   1.352       .  A
N654        N655   1.322       .  A
N654       Mn658   2.213   1_554  S
N655        C662   1.357       .  A
N656        N657   1.321       .  A
N656       Mn659   2.205   1_545  S
N657        C661   1.353       .  A
Mn658      Cl660   2.554   1_545  S
Mn659      Cl660   2.539       .  S
C661       C1957   1.486       .  S
C662       C1873   1.483       .  S
C663       C1789   1.574       .  S
C663       C1826   1.578       .  S
C663       C2022   1.580       .  S
C663       C2190   1.574       .  S
C664       C1761   1.570       .  S
C664       C1985   1.568       .  S
C664       C2302   1.569       .  S
C664       C3189   1.575       .  S
C665       C1966   1.568       .  S
C665       C2097   1.569       .  S
C665       C2274   1.595       .  S
C665       C3702   1.581       .  S
C666       C1677   1.573       .  S
C666       C1705   1.572       .  S
C666       C1733   1.580       .  S
C666       C1929   1.573       .  S
C667       C1901   1.572       .  S
C667       C2153   1.571       .  S
C667       C3170   1.585       .  S
C667       C3497   1.577       .  S
N668        C673   1.356       .  A
N668        C672   1.353       .  A
N668        H700   1.035       .  S
N669        C676   1.351       .  A
N669        C677   1.355       .  A
N670        C675   1.354       .  A
N670        C674   1.357       .  A
N670        H701   1.031       .  S
N671        C678   1.355       .  A
N671        C679   1.352       .  A
C672        C680   1.388       .  A
C672        C688   1.418       .  A
C673        C689   1.417       .  A
C673        C681   1.386       .  A
C674        C682   1.387       .  A
C674        C691   1.422       .  A
C675        C690   1.423       .  A
C675        C683   1.389       .  A
C676        C688   1.417       .  A
C676        C684   1.387       .  A
C677        C691   1.418       .  A
C677        C685   1.386       .  A
C678        C686   1.384       .  A
C678        C689   1.417       .  A
C679        C687   1.388       .  A
C679        C690   1.420       .  A
C680        C681   1.375       .  A
C680        H692   1.082       .  S
C681        H693   1.082       .  S
C682        C683   1.378       .  A
C682        H694   1.082       .  S
C683        H695   1.082       .  S
C684        C685   1.375       .  A
C684        H696   1.082       .  S
C685        H697   1.082       .  S
C686        C687   1.374       .  A
C686        H698   1.082       .  S
C687        H699   1.082       .  S
C688       C3730   1.485       .  S
C689       C4514   1.498       .  S
C690       C1770   1.487       .  S
C691       C1742   1.498       .  S
C702       C1882   1.566       .  S
C702       C3357   1.574       .  S
C702       C3553   1.566       .  S
C702       C3646   1.578       .  S
C703       C1658   1.570       .  S
C703       C1854   1.570       .  S
C703       C3002   1.567       .  S
C703       C3329   1.567       .  S
N704        C709   1.353   1_455  A
N704        C708   1.355       .  A
N704        H736   1.033       .  S
N705        C712   1.351       .  A
N705        C713   1.351       .  A
N706        C711   1.355   1_455  A
N706        C710   1.354       .  A
N706        H737   1.036       .  S
N707        C714   1.354       .  A
N707        C715   1.355       .  A
C708        C716   1.386       .  A
C708        C724   1.417       .  A
C709        C725   1.422       .  A
C709        C717   1.389       .  A
C710        C718   1.386       .  A
C710        C727   1.417       .  A
C711        C726   1.418       .  A
C711        C719   1.388       .  A
C712        C724   1.413       .  A
C712        C720   1.386       .  A
C713        C727   1.413       .  A
C713        C721   1.386       .  A
C714        C722   1.387       .  A
C714        C725   1.421       .  A
C715        C723   1.385       .  A
C715        C726   1.420       .  A
C716        C717   1.376   1_455  A
C716        H728   1.082       .  S
C717        H729   1.082       .  S
C718        C719   1.375   1_455  A
C718        H730   1.082       .  S
C719        H731   1.082       .  S
C720        C721   1.373       .  A
C720        H732   1.082       .  S
C721        H733   1.082       .  S
C722        C723   1.378       .  A
C722        H734   1.082       .  S
C723        H735   1.082       .  S
C724       C2330   1.486       .  S
C725       C2377   1.492       .  S
C726       C1621   1.497       .  S
C727       C1593   1.490       .  S
N738        C743   1.353   1_565  A
N738        C742   1.358       .  A
N738        H770   1.036       .  S
N739        C746   1.355       .  A
N739        C747   1.351       .  A
N740        C745   1.355       .  A
N740        C744   1.351   1_545  A
N740        H771   1.037       .  S
N741        C748   1.350       .  A
N741        C749   1.353       .  A
C742        C750   1.387       .  A
C742        C758   1.424       .  A
C743        C759   1.422       .  A
C743        C751   1.388       .  A
C744        C752   1.388       .  A
C744        C761   1.417       .  A
C745        C760   1.417       .  A
C745        C753   1.387       .  A
C746        C758   1.417       .  A
C746        C754   1.385       .  A
C747        C761   1.418       .  A
C747        C755   1.388       .  A
C748        C756   1.389       .  A
C748        C759   1.416       .  A
C749        C757   1.385       .  A
C749        C760   1.412       .  A
C750        C751   1.375   1_565  A
C750        H762   1.082       .  S
C751        H763   1.082       .  S
C752        C753   1.376   1_565  A
C752        H764   1.082       .  S
C753        H765   1.082       .  S
C754        C755   1.373       .  A
C754        H766   1.082       .  S
C755        H767   1.082       .  S
C756        C757   1.371       .  A
C756        H768   1.082       .  S
C757        H769   1.082       .  S
C758       C1817   1.503       .  S
C759       C1649   1.483       .  S
C760       C1565   1.488       .  S
C761       C1537   1.482       .  S
N772        C777   1.354       .  A
N772        C776   1.352       .  A
N772        H804   1.039       .  S
N773        C780   1.350       .  A
N773        C781   1.351       .  A
N774        C779   1.351       .  A
N774        C778   1.353       .  A
N774        H805   1.039       .  S
N775        C782   1.354       .  A
N775        C783   1.350       .  A
C776        C784   1.386       .  A
C776        C792   1.413       .  A
C777        C793   1.419       .  A
C777        C785   1.387       .  A
C778        C786   1.386       .  A
C778        C795   1.413       .  A
C779        C794   1.414       .  A
C779        C787   1.389       .  A
C780        C792   1.410       .  A
C780        C788   1.386       .  A
C781        C795   1.410       .  A
C781        C789   1.386       .  A
C782        C790   1.385       .  A
C782        C793   1.417       .  A
C783        C791   1.386       .  A
C783        C794   1.412       .  A
C784        C785   1.376       .  A
C784        H796   1.082       .  S
C785        H797   1.082       .  S
C786        C787   1.375       .  A
C786        H798   1.083       .  S
C787        H799   1.082       .  S
C788        C789   1.374       .  A
C788        H800   1.082       .  S
C789        H801   1.082       .  S
C790        C791   1.378       .  A
C790        H802   1.081       .  S
C791        H803   1.082       .  S
C792       C1509   1.483       .  S
C793       C1481   1.506       .  S
C794       C3917   1.479       .  S
C795       C4281   1.488       .  S
N806        C811   1.355       .  A
N806        C810   1.354       .  A
N806        H838   1.016       .  S
N807        C814   1.350       .  A
N807        C815   1.351       .  A
N808        C813   1.357       .  A
N808        C812   1.359       .  A
N808        H839   1.023       .  S
N809        C816   1.355       .  A
N809        C817   1.353       .  A
C810        C818   1.387       .  A
C810        C826   1.418       .  A
C811        C827   1.420       .  A
C811        C819   1.387       .  A
C812        C820   1.385       .  A
C812        C829   1.424       .  A
C813        C828   1.426       .  A
C813        C821   1.389       .  A
C814        C826   1.413       .  A
C814        C822   1.387       .  A
C815        C829   1.411       .  A
C815        C823   1.384       .  A
C816        C824   1.385       .  A
C816        C827   1.420       .  A
C817        C825   1.388       .  A
C817        C828   1.422       .  A
C818        C819   1.375       .  A
C818        H830   1.082       .  S
C819        H831   1.082       .  S
C820        C821   1.371       .  A
C820        H832   1.082       .  S
C821        H833   1.080       .  S
C822        C823   1.369       .  A
C822        H834   1.081       .  S
C823        H835   1.082       .  S
C824        C825   1.372       .  A
C824        H836   1.082       .  S
C825        H837   1.082       .  S
C826       C1434   1.481       .  S
C827       C1453   1.494       .  S
C828       C4542   1.497       .  S
C829       C4010   1.503       .  S
C840       C1397   1.564       .  S
C840       C1490   1.592       .  S
C840       C1574   1.570       .  S
C840       C3422   1.580       .  S
N841        N842   1.323       .  A
N841        N847   1.316       .  A
N841       Mn870   2.207   1_645  S
N842        C849   1.354       .  A
N843        N845   1.317       .  A
N843        N844   1.322       .  A
N843       Mn859   2.207       .  S
N844        C850   1.354       .  A
N845        N846   1.323       .  A
N845       Mn870   2.222   1_655  S
N846        C850   1.355       .  A
N847        N848   1.316       .  A
N847       Mn859   2.192   1_545  S
N848        C849   1.351       .  A
C849       C1294   1.472       .  S
C850       C1266   1.486       .  S
N851        N857   1.316       .  A
N851        N852   1.324       .  A
N851       Mn881   2.210   1_655  S
N852        C860   1.355       .  A
N853        N854   1.321       .  A
N853        N855   1.315       .  A
N853       Mn859   2.202   1_545  S
N854        C861   1.353       .  A
N855        N856   1.321       .  A
N855       Mn881   2.208   1_645  S
N856        C861   1.355       .  A
N857        N858   1.320       .  A
N857       Mn859   2.213       .  S
N858        C860   1.355       .  A
Mn859      Cl883   2.547   1_655  S
C860       C1378   1.487       .  S
C861       C1406   1.484       .  S
N862        N863   1.320       .  A
N862        N868   1.316       .  A
N862       Mn870   2.206       .  S
N863        C871   1.354       .  A
N864        N866   1.316       .  A
N864        N865   1.321       .  A
N864       Mn882   2.197   1_545  S
N865        C872   1.352       .  A
N866        N867   1.321       .  A
N866       Mn870   2.212   1_545  S
N867        C872   1.354       .  A
N868        N869   1.317       .  A
N868       Mn882   2.184       .  S
N869        C871   1.349       .  A
Mn870      Cl883   2.544       .  S
C871       C1313   1.473       .  S
C872       C1210   1.479       .  S
N873        N874   1.319       .  A
N873        N879   1.316       .  A
N873       Mn881   2.210   1_545  S
N874        C884   1.354       .  A
N875        N876   1.322       .  A
N875        N877   1.315       .  A
N875       Mn882   2.199       .  S
N876        C885   1.354       .  A
N877        N878   1.317       .  A
N877       Mn881   2.194       .  S
N878        C885   1.351       .  A
N879        N880   1.319       .  A
N879       Mn882   2.185   1_545  S
N880        C884   1.350       .  A
Mn881      Cl883   2.543       .  S
Mn882      Cl883   2.555       .  S
C884       C1238   1.474       .  S
C885       C1341   1.477       .  S
C886       C1173   1.564       .  S
C886       C1369   1.581       .  S
C886       C1546   1.567       .  S
C886       C1630   1.597       .  S
C887       C1350   1.567       .  S
C887       C1425   1.570       .  S
C887       C1602   1.578       .  S
C887       C3590   1.574       .  S
C888       C1145   1.566       .  S
C888       C1322   1.566       .  S
C888       C1462   1.569       .  S
C888       C2218   1.574       .  S
C889       C1117   1.581       .  S
C889       C1285   1.566       .  S
C889       C1518   1.571       .  S
C889       C2909   1.582       .  S
C890       C1033   1.579       .  S
C890       C1061   1.579       .  S
C890       C1089   1.561       .  S
C890       C1257   1.573       .  S
N891        C896   1.353       .  A
N891        C895   1.357       .  A
N891        H923   1.035       .  S
N892        C899   1.354       .  A
N892        C900   1.352       .  A
N893        C898   1.356       .  A
N893        C897   1.353       .  A
N893        H924   1.035       .  S
N894        C901   1.352       .  A
N894        C902   1.354       .  A
C895        C903   1.389       .  A
C895        C911   1.423       .  A
C896        C912   1.419       .  A
C896        C904   1.386       .  A
C897        C905   1.388       .  A
C897        C914   1.419       .  A
C898        C913   1.419       .  A
C898        C906   1.386       .  A
C899        C911   1.418       .  A
C899        C907   1.386       .  A
C900        C914   1.419       .  A
C900        C908   1.387       .  A
C901        C909   1.387       .  A
C901        C912   1.416       .  A
C902        C910   1.385       .  A
C902        C913   1.415       .  A
C903        C904   1.374       .  A
C903        H915   1.081       .  S
C904        H916   1.082       .  S
C905        C906   1.376       .  A
C905        H917   1.082       .  S
C906        H918   1.082       .  S
C907        C908   1.372       .  A
C907        H919   1.082       .  S
C908        H920   1.082       .  S
C909        C910   1.373       .  A
C909        H921   1.082       .  S
C910        H922   1.082       .  S
C911       C1182   1.497       .  S
C912       C1098   1.487       .  S
C913       C3786   1.497       .  S
C914       C4066   1.489       .  S
C925       C1229   1.574       .  S
C925       C3301   1.593       .  S
C925       C3478   1.578       .  S
C925       C3525   1.561       .  S
C926       C1201   1.563       .  S
C926       C2246   1.597       .  S
C926       C2881   1.578       .  S
C926       C3273   1.583       .  S
N927        C932   1.353   1_455  A
N927        C931   1.352       .  A
N927        H959   1.039       .  S
N928        C935   1.347       .  A
N928        C936   1.349       .  A
N929        C934   1.352   1_455  A
N929        C933   1.353       .  A
N929        H960   1.034       .  S
N930        C937   1.352       .  A
N930        C938   1.352       .  A
C931        C939   1.388       .  A
C931        C947   1.414       .  A
C932        C948   1.414       .  A
C932        C940   1.386   1_655  A
C933        C941   1.386       .  A
C933        C950   1.415       .  A
C934        C949   1.417       .  A
C934        C942   1.389   1_655  A
C935        C947   1.407       .  A
C935        C943   1.386       .  A
C936        C950   1.409       .  A
C936        C944   1.386       .  A
C937        C945   1.386       .  A
C937        C948   1.415       .  A
C938        C946   1.387       .  A
C938        C949   1.415       .  A
C939        C940   1.376       .  A
C939        H951   1.082       .  S
C940        H952   1.082   1_455  S
C941        C942   1.373       .  A
C941        H953   1.083       .  S
C942        H954   1.082   1_455  S
C943        C944   1.373       .  A
C943        H955   1.082       .  S
C944        H956   1.082       .  S
C945        C946   1.373       .  A
C945        H957   1.082       .  S
C946        H958   1.082       .  S
C947       C1154   1.476       .  S
C948       C1042   1.495       .  S
C949       C2694   1.485       .  S
C950       C2442   1.480       .  S
N961        C966   1.354   1_565  A
N961        C965   1.356       .  A
N961        H993   1.036       .  S
N962        C969   1.355       .  A
N962        C970   1.354       .  A
N963        C968   1.356   1_565  A
N963        C967   1.353       .  A
N963        H994   1.035       .  S
N964        C971   1.350       .  A
N964        C972   1.351       .  A
C965        C973   1.388       .  A
C965        C981   1.421       .  A
C966        C982   1.419       .  A
C966        C974   1.386   1_545  A
C967        C975   1.387       .  A
C967        C984   1.418       .  A
C968        C983   1.420       .  A
C968        C976   1.387   1_545  A
C969        C981   1.421       .  A
C969        C977   1.387       .  A
C970        C984   1.419       .  A
C970        C978   1.386       .  A
C971        C979   1.387       .  A
C971        C982   1.412       .  A
C972        C980   1.386       .  A
C972        C983   1.411       .  A
C973        C974   1.375       .  A
C973        H985   1.080       .  S
C974        H986   1.082   1_565  S
C975        C976   1.376       .  A
C975        H987   1.082       .  S
C976        H988   1.082   1_565  S
C977        C978   1.376       .  A
C977        H989   1.082       .  S
C978        H990   1.082       .  S
C979        C980   1.372       .  A
C979        H991   1.082       .  S
C980        H992   1.082       .  S
C981       C1686   1.499       .  S
C982       C2050   1.490       .  S
C983       C1126   1.491       .  S
C984       C1070   1.492       .  S
N995       C1000   1.358       .  A
N995        C999   1.355       .  A
N995       H1027   1.035       .  S
N996       C1003   1.351       .  A
N996       C1004   1.353       .  A
N997       C1002   1.352       .  A
N997       C1001   1.356       .  A
N997       H1028   1.038       .  S
N998       C1005   1.356       .  A
N998       C1006   1.354       .  A
C999       C1007   1.388       .  A
C999       C1015   1.423       .  A
C1000      C1016   1.424   1_556  A
C1000      C1008   1.387       .  A
C1001      C1009   1.385       .  A
C1001      C1018   1.415       .  A
C1002      C1017   1.418   1_556  A
C1002      C1010   1.389       .  A
C1003      C1015   1.414       .  A
C1003      C1011   1.387       .  A
C1004      C1018   1.416       .  A
C1004      C1012   1.386       .  A
C1005      C1013   1.386       .  A
C1005      C1016   1.421       .  A
C1006      C1014   1.386       .  A
C1006      C1017   1.420       .  A
C1007      C1008   1.377       .  A
C1007      H1019   1.082       .  S
C1008      H1020   1.082       .  S
C1009      C1010   1.376       .  A
C1009      H1021   1.082       .  S
C1010      H1022   1.083   1_556  S
C1011      C1012   1.373       .  A
C1011      H1023   1.082       .  S
C1012      H1024   1.082       .  S
C1013      C1014   1.374       .  A
C1013      H1025   1.082       .  S
C1014      H1026   1.082       .  S
C1015      C2666   1.489       .  S
C1016      C2358   1.505       .  S
C1017      C1798   1.492       .  S
C1018      C1714   1.497       .  S
C1029      C1030   1.391       .  A
C1029      C1034   1.398       .  A
C1029      H1039   1.084       .  S
C1030      C1035   1.479       .  S
C1030      C1031   1.400       .  A
C1031      C1032   1.399       .  A
C1031      N1036   1.428       .  S
C1032      C1033   1.420       .  A
C1032      H1037   1.078       .  S
C1033      C1034   1.434       .  A
C1034      N1038   1.426       .  S
C1035      C1040   1.408       .  A
C1035      C1044   1.399       .  A
N1036      O1051   1.262       .  A
N1036      O1052   1.262       .  A
N1038      O1049   1.263       .  A
N1038      O1050   1.263       .  A
C1040      C1041   1.402       .  A
C1040      N1045   1.430       .  S
C1041      C1042   1.408       .  A
C1041      H1046   1.084       .  S
C1042      C1043   1.414       .  A
C1043      C1044   1.398       .  A
C1043      N1047   1.429       .  S
C1044      H1048   1.084       .  S
N1045      O1055   1.262       .  A
N1045      O1056   1.262       .  A
N1047      O1053   1.262       .  A
N1047      O1054   1.261       .  A
C1057      C1058   1.396       .  A
C1057      C1062   1.404       .  A
C1057      H1067   1.084       .  S
C1058      C1063   1.486       .  S
C1058      C1059   1.404       .  A
C1059      C1060   1.401       .  A
C1059      N1064   1.429       .  S
C1060      C1061   1.420       .  A
C1060      H1065   1.078       .  S
C1061      C1062   1.435       .  A
C1062      N1066   1.432       .  S
C1063      C1068   1.411       .  A
C1063      C1072   1.403       .  A
N1064      O1079   1.262       .  A
N1064      O1080   1.262       .  A
N1066      O1077   1.262       .  A
N1066      O1078   1.262       .  A
C1068      C1069   1.404       .  A
C1068      N1073   1.429       .  S
C1069      C1070   1.403       .  A
C1069      H1074   1.084       .  S
C1070      C1071   1.409       .  A
C1071      C1072   1.403       .  A
C1071      N1075   1.428       .  S
C1072      H1076   1.084       .  S
N1073      O1083   1.262       .  A
N1073      O1084   1.261       .  A
N1075      O1081   1.262       .  A
N1075      O1082   1.262       .  A
C1085      C1086   1.397       .  A
C1085      C1090   1.402       .  A
C1085      H1095   1.083       .  S
C1086      C1091   1.483       .  S
C1086      C1087   1.405       .  A
C1087      C1088   1.395       .  A
C1087      N1092   1.430       .  S
C1088      C1089   1.414       .  A
C1088      H1093   1.078       .  S
C1089      C1090   1.434       .  A
C1090      N1094   1.433       .  S
C1091      C1096   1.413       .  A
C1091      C1100   1.402       .  A
N1092      O1107   1.262       .  A
N1092      O1108   1.262       .  A
N1094      O1105   1.262       .  A
N1094      O1106   1.261       .  A
C1096      C1097   1.402       .  A
C1096      N1101   1.429       .  S
C1097      C1098   1.403       .  A
C1097      H1102   1.084       .  S
C1098      C1099   1.407       .  A
C1099      C1100   1.395       .  A
C1099      N1103   1.428       .  S
C1100      H1104   1.084       .  S
N1101      O1111   1.262       .  A
N1101      O1112   1.262       .  A
N1103      O1109   1.262       .  A
N1103      O1110   1.262       .  A
C1113      C1114   1.394       .  A
C1113      C1118   1.401       .  A
C1113      H1123   1.084       .  S
C1114      C1119   1.485       .  S
C1114      C1115   1.401       .  A
C1115      C1116   1.398       .  A
C1115      N1120   1.428       .  S
C1116      C1117   1.423       .  A
C1116      H1121   1.083       .  S
C1117      C1118   1.438       .  A
C1118      N1122   1.426       .  S
C1119      C1124   1.412       .  A
C1119      C1128   1.403       .  A
N1120      O1135   1.262       .  A
N1120      O1136   1.261       .  A
N1122      O1133   1.263       .  A
N1122      O1134   1.261       .  A
C1124      C1125   1.399       .  A
C1124      N1129   1.429       .  S
C1125      C1126   1.401       .  A
C1125      H1130   1.084       .  S
C1126      C1127   1.412       .  A
C1127      C1128   1.403       .  A
C1127      N1131   1.429       .  S
C1128      H1132   1.083       .  S
N1129      O1139   1.262       .  A
N1129      O1140   1.262       .  A
N1131      O1137   1.262       .  A
N1131      O1138   1.262       .  A
C1141      C1142   1.395       .  A
C1141      C1146   1.401       .  A
C1141      H1151   1.084       .  S
C1142      C1147   1.469       .  S
C1142      C1143   1.398       .  A
C1143      C1144   1.390       .  A
C1143      N1148   1.430       .  S
C1144      C1145   1.417       .  A
C1144      H1149   1.077       .  S
C1145      C1146   1.433       .  A
C1146      N1150   1.431       .  S
C1147      C1152   1.407       .  A
C1147      C1156   1.401       .  A
N1148      O1163   1.262       .  A
N1148      O1164   1.262       .  A
N1150      O1161   1.262       .  A
N1150      O1162   1.262       .  A
C1152      C1153   1.397       .  A
C1152      N1157   1.428       .  S
C1153      C1154   1.401       .  A
C1153      H1158   1.084       .  S
C1154      C1155   1.407       .  A
C1155      C1156   1.395       .  A
C1155      N1159   1.428       .  S
C1156      H1160   1.084       .  S
N1157      O1167   1.262       .  A
N1157      O1168   1.262       .  A
N1159      O1165   1.262       .  A
N1159      O1166   1.262       .  A
C1169      C1170   1.402       .  A
C1169      C1174   1.406       .  A
C1169      H1179   1.082       .  S
C1170      C1175   1.501       .  S
C1170      C1171   1.411       .  A
C1171      C1172   1.397       .  A
C1171      N1176   1.430       .  S
C1172      C1173   1.414       .  A
C1172      H1177   1.083       .  S
C1173      C1174   1.440       .  A
C1174      N1178   1.437       .  S
C1175      C1180   1.419       .  A
C1175      C1184   1.408       .  A
N1176      O1191   1.262       .  A
N1176      O1192   1.262       .  A
N1178      O1189   1.261       .  A
N1178      O1190   1.260       .  A
C1180      C1181   1.401       .  A
C1180      N1185   1.430       .  S
C1181      C1182   1.401       .  A
C1181      H1186   1.084       .  S
C1182      C1183   1.410       .  A
C1183      C1184   1.403       .  A
C1183      N1187   1.429       .  S
C1184      H1188   1.082       .  S
N1185      O1195   1.262       .  A
N1185      O1196   1.262       .  A
N1187      O1193   1.262       .  A
N1187      O1194   1.262       .  A
C1197      C1198   1.396       .  A
C1197      C1202   1.405       .  A
C1197      H1207   1.084       .  S
C1198      C1203   1.477       .  S
C1198      C1199   1.400       .  A
C1199      C1200   1.394       .  A
C1199      N1204   1.429       .  S
C1200      C1201   1.420       .  A
C1200      H1205   1.083       .  S
C1201      C1202   1.437       .  A
C1202      N1206   1.431       .  S
C1203      C1208   1.408       .  A
C1203      C1212   1.400       .  A
N1204      O1219   1.262       .  A
N1204      O1220   1.261       .  A
N1206      O1217   1.262       .  A
N1206      O1218   1.262       .  A
C1208      C1209   1.400       .  A
C1208      N1213   1.429       .  S
C1209      C1210   1.403       .  A
C1209      H1214   1.084       .  S
C1210      C1211   1.414       .  A
C1211      C1212   1.401       .  A
C1211      N1215   1.429       .  S
C1212      H1216   1.084       .  S
N1213      O1223   1.262       .  A
N1213      O1224   1.261       .  A
N1215      O1221   1.262       .  A
N1215      O1222   1.262       .  A
C1225      C1226   1.392       .  A
C1225      C1230   1.398       .  A
C1225      H1235   1.083       .  S
C1226      C1231   1.480       .  S
C1226      C1227   1.401       .  A
C1227      C1228   1.399       .  A
C1227      N1232   1.429       .  S
C1228      C1229   1.422       .  A
C1228      H1233   1.078       .  S
C1229      C1230   1.435       .  A
C1230      N1234   1.427       .  S
C1231      C1236   1.413       .  A
C1231      C1240   1.401       .  A
N1232      O1247   1.262       .  A
N1232      O1248   1.262       .  A
N1234      O1245   1.262       .  A
N1234      O1246   1.262       .  A
C1236      C1237   1.397       .  A
C1236      N1241   1.429       .  S
C1237      C1238   1.401       .  A
C1237      H1242   1.084       .  S
C1238      C1239   1.412       .  A
C1239      C1240   1.397       .  A
C1239      N1243   1.429       .  S
C1240      H1244   1.084       .  S
N1241      O1251   1.262       .  A
N1241      O1252   1.262       .  A
N1243      O1249   1.262       .  A
N1243      O1250   1.262       .  A
C1253      C1254   1.399       .  A
C1253      C1258   1.408       .  A
C1253      H1263   1.084       .  S
C1254      C1259   1.486       .  S
C1254      C1255   1.402       .  A
C1255      C1256   1.396       .  A
C1255      N1260   1.429       .  S
C1256      C1257   1.420       .  A
C1256      H1261   1.083       .  S
C1257      C1258   1.440       .  A
C1258      N1262   1.436       .  S
C1259      C1264   1.411       .  A
C1259      C1268   1.401       .  A
N1260      O1275   1.262       .  A
N1260      O1276   1.262       .  A
N1262      O1273   1.260       .  A
N1262      O1274   1.261       .  A
C1264      C1265   1.405       .  A
C1264      N1269   1.429       .  S
C1265      C1266   1.405       .  A
C1265      H1270   1.084       .  S
C1266      C1267   1.413       .  A
C1267      C1268   1.401       .  A
C1267      N1271   1.428       .  S
C1268      H1272   1.084       .  S
N1269      O1279   1.262       .  A
N1269      O1280   1.261       .  A
N1271      O1277   1.262       .  A
N1271      O1278   1.262       .  A
C1281      C1282   1.396       .  A
C1281      C1286   1.401       .  A
C1281      H1291   1.084       .  S
C1282      C1287   1.478       .  S
C1282      C1283   1.400       .  A
C1283      C1284   1.395       .  A
C1283      N1288   1.429       .  S
C1284      C1285   1.420       .  A
C1284      H1289   1.083       .  S
C1285      C1286   1.439       .  A
C1286      N1290   1.434       .  S
C1287      C1292   1.409       .  A
C1287      C1296   1.404       .  A
N1288      O1303   1.262       .  A
N1288      O1304   1.261       .  A
N1290      O1301   1.263       .  A
N1290      O1302   1.261       .  A
C1292      C1293   1.393       .  A
C1292      N1297   1.429       .  S
C1293      C1294   1.401       .  A
C1293      H1298   1.084       .  S
C1294      C1295   1.410       .  A
C1295      C1296   1.403       .  A
C1295      N1299   1.428       .  S
C1296      H1300   1.083       .  S
N1297      O1307   1.262       .  A
N1297      O1308   1.262       .  A
N1299      O1305   1.262       .  A
N1299      O1306   1.262   1_655  A
C1309      C1310   1.400       .  A
C1309      C1314   1.393       .  A
C1309      H1319   1.083       .  S
C1310      C1315   1.480       .  S
C1310      C1311   1.412       .  A
C1311      C1312   1.399       .  A
C1311      N1316   1.429       .  S
C1312      C1313   1.402       .  A
C1312      H1317   1.084       .  S
C1313      C1314   1.413       .  A
C1314      N1318   1.429       .  S
C1315      C1320   1.406       .  A
C1315      C1324   1.397       .  A
N1316      O1331   1.262       .  A
N1316      O1332   1.262       .  A
N1318      O1329   1.262       .  A
N1318      O1330   1.262       .  A
C1320      C1321   1.392       .  A
C1320      N1325   1.430       .  S
C1321      C1322   1.414       .  A
C1321      H1326   1.078       .  S
C1322      C1323   1.433       .  A
C1323      C1324   1.400       .  A
C1323      N1327   1.432       .  S
C1324      H1328   1.084       .  S
N1325      O1335   1.262       .  A
N1325      O1336   1.261       .  A
N1327      O1333   1.262       .  A
N1327      O1334   1.262       .  A
C1337      C1338   1.403       .  A
C1337      C1342   1.395       .  A
C1337      H1347   1.085       .  S
C1338      C1343   1.480       .  S
C1338      C1339   1.410       .  A
C1339      C1340   1.399       .  A
C1339      N1344   1.429       .  S
C1340      C1341   1.405       .  A
C1340      H1345   1.084       .  S
C1341      C1342   1.410       .  A
C1342      N1346   1.429       .  S
C1343      C1348   1.404       .  A
C1343      C1352   1.395       .  A
N1344      O1359   1.262       .  A
N1344      O1360   1.262       .  A
N1346      O1357   1.262       .  A
N1346      O1358   1.262       .  A
C1348      C1349   1.400       .  A
C1348      N1353   1.430       .  S
C1349      C1350   1.416       .  A
C1349      H1354   1.078       .  S
C1350      C1351   1.440       .  A
C1351      C1352   1.398       .  A
C1351      N1355   1.435       .  S
C1352      H1356   1.085       .  S
N1353      O1363   1.262       .  A
N1353      O1364   1.262       .  A
N1355      O1361   1.261       .  A
N1355      O1362   1.262       .  A
C1365      C1366   1.398       .  A
C1365      C1370   1.406       .  A
C1365      H1375   1.083       .  S
C1366      C1371   1.492       .  S
C1366      C1367   1.405       .  A
C1367      C1368   1.398       .  A
C1367      N1372   1.429       .  S
C1368      C1369   1.422       .  A
C1368      H1373   1.083       .  S
C1369      C1370   1.439       .  A
C1370      N1374   1.430       .  S
C1371      C1376   1.413       .  A
C1371      C1380   1.405       .  A
N1372      O1387   1.262       .  A
N1372      O1388   1.262       .  A
N1374      O1385   1.261       .  A
N1374      O1386   1.262       .  A
C1376      C1377   1.400       .  A
C1376      N1381   1.429       .  S
C1377      C1378   1.404       .  A
C1377      H1382   1.084       .  S
C1378      C1379   1.413       .  A
C1379      C1380   1.405       .  A
C1379      N1383   1.429       .  S
C1380      H1384   1.083       .  S
N1381      O1391   1.262       .  A
N1381      O1392   1.262       .  A
N1383      O1389   1.262       .  A
N1383      O1390   1.262       .  A
C1393      C1394   1.400       .  A
C1393      C1398   1.406       .  A
C1393      H1403   1.084       .  S
C1394      C1399   1.492       .  S
C1394      C1395   1.407       .  A
C1395      C1396   1.396       .  A
C1395      N1400   1.429       .  S
C1396      C1397   1.417       .  A
C1396      H1401   1.083       .  S
C1397      C1398   1.435       .  A
C1398      N1402   1.429       .  S
C1399      C1404   1.414       .  A
C1399      C1408   1.404       .  A
N1400      O1415   1.262       .  A
N1400      O1416   1.261       .  A
N1402      O1413   1.262       .  A
N1402      O1414   1.261       .  A
C1404      C1405   1.401       .  A
C1404      N1409   1.429       .  S
C1405      C1406   1.404       .  A
C1405      H1410   1.084       .  S
C1406      C1407   1.412       .  A
C1407      C1408   1.402       .  A
C1407      N1411   1.428       .  S
C1408      H1412   1.082       .  S
N1409      O1419   1.262       .  A
N1409      O1420   1.262       .  A
N1411      O1417   1.262       .  A
N1411      O1418   1.262       .  A
C1421      C1422   1.397       .  A
C1421      C1426   1.395       .  A
C1421      H1431   1.081       .  S
C1422      C1427   1.494       .  S
C1422      C1423   1.411       .  A
C1423      C1424   1.403       .  A
C1423      N1428   1.429       .  S
C1424      C1425   1.419       .  A
C1424      H1429   1.080       .  S
C1425      C1426   1.426       .  A
C1426      N1430   1.427       .  S
C1427      C1432   1.420       .  A
C1427      C1436   1.409       .  A
N1428      O1443   1.262       .  A
N1428      O1444   1.262       .  A
N1430      O1441   1.262       .  A
N1430      O1442   1.262       .  A
C1432      C1433   1.396       .  A
C1432      N1437   1.430       .  S
C1433      C1434   1.395       .  A
C1433      H1438   1.084       .  S
C1434      C1435   1.406       .  A
C1435      C1436   1.402       .  A
C1435      N1439   1.430       .  S
C1436      H1440   1.082       .  S
N1437      O1447   1.262       .  A
N1437      O1448   1.261       .  A
N1439      O1445   1.262       .  A
N1439      O1446   1.262       .  A
C1449      C1450   1.404       .  A
C1449      C1454   1.399       .  A
C1449      H1459   1.083       .  S
C1450      C1455   1.495       .  S
C1450      C1451   1.418       .  A
C1451      C1452   1.405       .  A
C1451      N1456   1.430       .  S
C1452      C1453   1.402       .  A
C1452      H1457   1.084       .  S
C1453      C1454   1.409       .  A
C1454      N1458   1.428       .  S
C1455      C1460   1.411       .  A
C1455      C1464   1.398       .  A
N1456      O1471   1.262       .  A
N1456      O1472   1.262       .  A
N1458      O1469   1.262       .  A
N1458      O1470   1.262       .  A
C1460      C1461   1.401       .  A
C1460      N1465   1.429       .  S
C1461      C1462   1.413       .  A
C1461      H1466   1.079       .  S
C1462      C1463   1.435       .  A
C1463      C1464   1.401       .  A
C1463      N1467   1.433       .  S
C1464      H1468   1.082       .  S
N1465      O1475   1.262       .  A
N1465      O1476   1.262       .  A
N1467      O1473   1.262       .  A
N1467      O1474   1.262       .  A
C1477      C1478   1.412       .  A
C1477      C1482   1.408       .  A
C1477      H1487   1.082       .  S
C1478      C1483   1.513       .  S
C1478      C1479   1.418       .  A
C1479      C1480   1.402       .  A
C1479      N1484   1.428       .  S
C1480      C1481   1.405       .  A
C1480      H1485   1.084       .  S
C1481      C1482   1.413       .  A
C1482      N1486   1.430       .  S
C1483      C1488   1.413       .  A
C1483      C1492   1.407       .  A
N1484      O1499   1.262       .  A
N1484      O1500   1.262       .  A
N1486      O1497   1.262       .  A
N1486      O1498   1.262       .  A
C1488      C1489   1.402       .  A
C1488      N1493   1.430       .  S
C1489      C1490   1.420       .  A
C1489      H1494   1.079       .  S
C1490      C1491   1.429       .  A
C1491      C1492   1.409       .  A
C1491      N1495   1.431       .  S
C1492      H1496   1.080       .  S
N1493      O1503   1.262       .  A
N1493      O1504   1.262       .  A
N1495      O1501   1.261       .  A
N1495      O1502   1.262       .  A
C1505      C1506   1.408       .  A
C1505      C1510   1.405       .  A
C1505      H1515   1.083       .  S
C1506      C1511   1.489       .  S
C1506      C1507   1.415       .  A
C1507      C1508   1.397       .  A
C1507      N1512   1.429       .  S
C1508      C1509   1.397       .  A
C1508      H1513   1.084       .  S
C1509      C1510   1.407       .  A
C1510      N1514   1.429       .  S
C1511      C1516   1.403       .  A
C1511      C1520   1.400       .  A
N1512      O1527   1.262       .  A
N1512      O1528   1.262       .  A
N1514      O1525   1.262       .  A
N1514      O1526   1.262       .  A
C1516      C1517   1.396       .  A
C1516      N1521   1.430       .  S
C1517      C1518   1.417       .  A
C1517      H1522   1.077       .  S
C1518      C1519   1.434       .  A
C1519      C1520   1.407       .  A
C1519      N1523   1.434       .  S
C1520      H1524   1.084       .  S
N1521      O1531   1.262       .  A
N1521      O1532   1.262       .  A
N1523      O1529   1.262       .  A
N1523      O1530   1.260       .  A
C1533      C1534   1.404       .  A
C1533      C1538   1.398       .  A
C1533      H1543   1.083       .  S
C1534      C1539   1.484       .  S
C1534      C1535   1.414       .  A
C1535      C1536   1.398       .  A
C1535      N1540   1.429       .  S
C1536      C1537   1.400       .  A
C1536      H1541   1.084       .  S
C1537      C1538   1.407       .  A
C1538      N1542   1.428       .  S
C1539      C1544   1.407       .  A
C1539      C1548   1.393       .  A
N1540      O1555   1.262       .  A
N1540      O1556   1.262       .  A
N1542      O1553   1.262       .  A
N1542      O1554   1.262       .  A
C1544      C1545   1.399       .  A
C1544      N1549   1.429       .  S
C1545      C1546   1.414       .  A
C1545      H1550   1.078       .  S
C1546      C1547   1.436       .  A
C1547      C1548   1.398       .  A
C1547      N1551   1.430       .  S
C1548      H1552   1.084       .  S
N1549      O1559   1.262       .  A
N1549      O1560   1.261       .  A
N1551      O1557   1.261       .  A
N1551      O1558   1.262       .  A
C1561      C1562   1.401       .  A
C1561      C1566   1.402       .  A
C1561      H1571   1.084       .  S
C1562      C1567   1.478       .  S
C1562      C1563   1.411       .  A
C1563      C1564   1.399       .  A
C1563      N1568   1.429       .  S
C1564      C1565   1.400       .  A
C1564      H1569   1.084       .  S
C1565      C1566   1.410       .  A
C1566      N1570   1.427       .  S
C1567      C1572   1.401       .  A
C1567      C1576   1.394       .  A
N1568      O1583   1.262       .  A
N1568      O1584   1.262       .  A
N1570      O1581   1.262       .  A
N1570      O1582   1.262       .  A
C1572      C1573   1.398       .  A
C1572      N1577   1.428       .  S
C1573      C1574   1.421       .  A
C1573      H1578   1.084       .  S
C1574      C1575   1.439       .  A
C1575      C1576   1.399       .  A
C1575      N1579   1.430       .  S
C1576      H1580   1.085       .  S
N1577      O1587   1.262       .  A
N1577      O1588   1.262       .  A
N1579      O1585   1.262       .  A
N1579      O1586   1.261       .  A
C1589      C1590   1.407       .  A
C1589      C1594   1.401       .  A
C1589      H1599   1.083       .  S
C1590      C1595   1.492       .  S
C1590      C1591   1.414       .  A
C1591      C1592   1.399       .  A
C1591      N1596   1.428       .  S
C1592      C1593   1.402       .  A
C1592      H1597   1.084       .  S
C1593      C1594   1.410       .  A
C1594      N1598   1.429       .  S
C1595      C1600   1.404       .  A
C1595      C1604   1.402       .  A
N1596      O1611   1.262       .  A
N1596      O1612   1.262       .  A
N1598      O1609   1.262       .  A
N1598      O1610   1.262       .  A
C1600      C1601   1.390       .  A
C1600      N1605   1.430       .  S
C1601      C1602   1.413       .  A
C1601      H1606   1.069       .  S
C1602      C1603   1.435       .  A
C1603      C1604   1.410       .  A
C1603      N1607   1.430       .  S
C1604      H1608   1.082       .  S
N1605      O1615   1.262       .  A
N1605      O1616   1.262       .  A
N1607      O1613   1.262       .  A
N1607      O1614   1.262       .  A
C1617      C1618   1.402       .  A
C1617      C1622   1.404       .  A
C1617      H1627   1.084       .  S
C1618      C1623   1.490       .  S
C1618      C1619   1.412       .  A
C1619      C1620   1.406       .  A
C1619      N1624   1.428       .  S
C1620      C1621   1.403       .  A
C1620      H1625   1.084       .  S
C1621      C1622   1.411       .  A
C1622      N1626   1.428       .  S
C1623      C1628   1.401       .  A
C1623      C1632   1.393       .  A
N1624      O1639   1.262       .  A
N1624      O1640   1.262       .  A
N1626      O1637   1.262       .  A
N1626      O1638   1.262       .  A
C1628      C1629   1.405       .  A
C1628      N1633   1.428       .  S
C1629      C1630   1.426       .  A
C1629      H1634   1.079       .  S
C1630      C1631   1.436       .  A
C1631      C1632   1.406       .  A
C1631      N1635   1.425       .  S
C1632      H1636   1.084       .  S
N1633      O1643   1.262       .  A
N1633      O1644   1.262       .  A
N1635      O1641   1.263       .  A
N1635      O1642   1.262       .  A
C1645      C1646   1.409       .  A
C1645      C1650   1.401       .  A
C1645      H1655   1.084       .  S
C1646      C1651   1.490       .  S
C1646      C1647   1.415       .  A
C1647      C1648   1.399       .  A
C1647      N1652   1.429       .  S
C1648      C1649   1.398       .  A
C1648      H1653   1.084       .  S
C1649      C1650   1.406       .  A
C1650      N1654   1.430       .  S
C1651      C1656   1.408       .  A
C1651      C1660   1.399       .  A
N1652      O1667   1.262       .  A
N1652      O1668   1.262       .  A
N1654      O1665   1.262       .  A
N1654      O1666   1.262       .  A
C1656      C1657   1.400       .  A
C1656      N1661   1.429       .  S
C1657      C1658   1.414       .  A
C1657      H1662   1.080       .  S
C1658      C1659   1.432       .  A
C1659      C1660   1.401       .  A
C1659      N1663   1.431       .  S
C1660      H1664   1.084       .  S
N1661      O1671   1.262       .  A
N1661      O1672   1.262       .  A
N1663      O1669   1.262       .  A
N1663      O1670   1.262       .  A
C1673      C1674   1.407       .  A
C1673      C1678   1.408       .  A
C1673      H1683   1.080       .  S
C1674      C1679   1.509       .  S
C1674      C1675   1.413       .  A
C1675      C1676   1.401       .  A
C1675      N1680   1.430       .  S
C1676      C1677   1.414       .  A
C1676      H1681   1.080       .  S
C1677      C1678   1.428       .  A
C1678      N1682   1.432       .  S
C1679      C1684   1.419       .  A
C1679      C1688   1.410       .  A
N1680      O1695   1.262       .  A
N1680      O1696   1.262       .  A
N1682      O1693   1.262       .  A
N1682      O1694   1.261       .  A
C1684      C1685   1.405       .  A
C1684      N1689   1.428       .  S
C1685      C1686   1.402       .  A
C1685      H1690   1.084       .  S
C1686      C1687   1.410       .  A
C1687      C1688   1.405       .  A
C1687      N1691   1.430       .  S
C1688      H1692   1.082       .  S
N1689      O1699   1.262       .  A
N1689      O1700   1.261       .  A
N1691      O1697   1.262       .  A
N1691      O1698   1.262       .  A
C1701      C1702   1.394       .  A
C1701      C1706   1.400       .  A
C1701      H1711   1.084       .  S
C1702      C1707   1.489       .  S
C1702      C1703   1.407       .  A
C1703      C1704   1.404       .  A
C1703      N1708   1.428       .  S
C1704      C1705   1.416       .  A
C1704      H1709   1.079       .  S
C1705      C1706   1.437       .  A
C1706      N1710   1.432       .  S
C1707      C1712   1.412       .  A
C1707      C1716   1.404       .  A
N1708      O1723   1.262       .  A
N1708      O1724   1.262       .  A
N1710      O1721   1.262       .  A
N1710      O1722   1.262       .  A
C1712      C1713   1.402       .  A
C1712      N1717   1.429       .  S
C1713      C1714   1.404       .  A
C1713      H1718   1.084       .  S
C1714      C1715   1.412       .  A
C1715      C1716   1.404       .  A
C1715      N1719   1.429       .  S
C1716      H1720   1.084       .  S
N1717      O1727   1.262       .  A
N1717      O1728   1.261       .  A
N1719      O1725   1.262       .  A
N1719      O1726   1.261       .  A
C1729      C1730   1.399       .  A
C1729      C1734   1.410       .  A
C1729      H1739   1.084       .  S
C1730      C1735   1.489       .  S
C1730      C1731   1.401       .  A
C1731      C1732   1.399       .  A
C1731      N1736   1.430       .  S
C1732      C1733   1.420       .  A
C1732      H1737   1.077       .  S
C1733      C1734   1.434       .  A
C1734      N1738   1.431       .  S
C1735      C1740   1.413       .  A
C1735      C1744   1.402       .  A
N1736      O1751   1.262       .  A
N1736      O1752   1.261       .  A
N1738      O1749   1.262       .  A
N1738      O1750   1.262       .  A
C1740      C1741   1.407       .  A
C1740      N1745   1.429       .  S
C1741      C1742   1.404       .  A
C1741      H1746   1.084       .  S
C1742      C1743   1.410       .  A
C1743      C1744   1.404       .  A
C1743      N1747   1.427       .  S
C1744      H1748   1.084       .  S
N1745      O1755   1.262       .  A
N1745      O1756   1.261       .  A
N1747      O1753   1.262       .  A
N1747      O1754   1.262       .  A
C1757      C1758   1.399       .  A
C1757      C1762   1.400       .  A
C1757      H1767   1.084       .  S
C1758      C1763   1.489       .  S
C1758      C1759   1.407       .  A
C1759      C1760   1.401       .  A
C1759      N1764   1.429       .  S
C1760      C1761   1.416       .  A
C1760      H1765   1.080       .  S
C1761      C1762   1.430       .  A
C1762      N1766   1.431       .  S
C1763      C1768   1.415       .  A
C1763      C1772   1.406       .  A
N1764      O1779   1.262       .  A
N1764      O1780   1.262       .  A
N1766      O1777   1.262       .  A
N1766      O1778   1.262       .  A
C1768      C1769   1.401       .  A
C1768      N1773   1.429       .  S
C1769      C1770   1.400       .  A
C1769      H1774   1.084       .  S
C1770      C1771   1.407       .  A
C1771      C1772   1.400       .  A
C1771      N1775   1.428       .  S
C1772      H1776   1.084       .  S
N1773      O1783   1.262       .  A
N1773      O1784   1.262       .  A
N1775      O1781   1.262       .  A
N1775      O1782   1.262       .  A
C1785      C1786   1.398       .  A
C1785      C1790   1.406       .  A
C1785      H1795   1.084       .  S
C1786      C1791   1.486       .  S
C1786      C1787   1.405       .  A
C1787      C1788   1.396       .  A
C1787      N1792   1.430       .  S
C1788      C1789   1.415       .  A
C1788      H1793   1.076       .  S
C1789      C1790   1.436       .  A
C1790      N1794   1.432       .  S
C1791      C1796   1.413       .  A
C1791      C1800   1.402       .  A
N1792      O1807   1.262       .  A
N1792      O1808   1.262       .  A
N1794      O1805   1.262       .  A
N1794      O1806   1.262       .  A
C1796      C1797   1.405       .  A
C1796      N1801   1.428       .  S
C1797      C1798   1.404       .  A
C1797      H1802   1.084       .  S
C1798      C1799   1.410       .  A
C1799      C1800   1.396       .  A
C1799      N1803   1.429       .  S
C1800      H1804   1.084       .  S
N1801      O1811   1.262       .  A
N1801      O1812   1.262       .  A
N1803      O1809   1.262       .  A
N1803      O1810   1.262       .  A
C1813      C1814   1.405       .  A
C1813      C1818   1.406       .  A
C1813      H1823   1.084       .  S
C1814      C1819   1.494       .  S
C1814      C1815   1.414       .  A
C1815      C1816   1.404       .  A
C1815      N1820   1.429       .  S
C1816      C1817   1.404       .  A
C1816      H1821   1.084       .  S
C1817      C1818   1.414       .  A
C1818      N1822   1.429       .  S
C1819      C1824   1.405       .  A
C1819      C1828   1.401       .  A
N1820      O1835   1.262       .  A
N1820      O1836   1.262       .  A
N1822      O1833   1.262       .  A
N1822      O1834   1.262       .  A
C1824      C1825   1.400       .  A
C1824      N1829   1.430       .  S
C1825      C1826   1.419       .  A
C1825      H1830   1.075       .  S
C1826      C1827   1.434       .  A
C1827      C1828   1.407       .  A
C1827      N1831   1.434       .  S
C1828      H1832   1.084       .  S
N1829      O1839   1.262       .  A
N1829      O1840   1.262       .  A
N1831      O1837   1.261       .  A
N1831      O1838   1.262       .  A
C1841      C1842   1.401       .  A
C1841      C1846   1.399       .  A
C1841      H1851   1.084       .  S
C1842      C1847   1.480       .  S
C1842      C1843   1.411       .  A
C1843      C1844   1.398       .  A
C1843      N1848   1.429       .  S
C1844      C1845   1.403       .  A
C1844      H1849   1.084       .  S
C1845      C1846   1.414       .  A
C1846      N1850   1.429       .  S
C1847      C1852   1.402       .  A
C1847      C1856   1.394       .  A
N1848      O1863   1.262       .  A
N1848      O1864   1.262       .  A
N1850      O1861   1.262       .  A
N1850      O1862   1.262       .  A
C1852      C1853   1.398       .  A
C1852      N1857   1.429       .  S
C1853      C1854   1.418       .  A
C1853      H1858   1.079       .  S
C1854      C1855   1.436       .  A
C1855      C1856   1.399       .  A
C1855      N1859   1.432       .  S
C1856      H1860   1.084       .  S
N1857      O1867   1.262       .  A
N1857      O1868   1.262       .  A
N1859      O1865   1.262       .  A
N1859      O1866   1.262       .  A
C1869      C1870   1.401       .  A
C1869      C1874   1.402       .  A
C1869      H1879   1.084       .  S
C1870      C1875   1.482       .  S
C1870      C1871   1.410       .  A
C1871      C1872   1.400       .  A
C1871      N1876   1.429       .  S
C1872      C1873   1.403       .  A
C1872      H1877   1.084       .  S
C1873      C1874   1.414       .  A
C1874      N1878   1.428       .  S
C1875      C1880   1.405       .  A
C1875      C1884   1.397       .  A
N1876      O1891   1.262       .  A
N1876      O1892   1.262       .  A
N1878      O1889   1.261       .  A
N1878      O1890   1.262       .  A
C1880      C1881   1.399       .  A
C1880      N1885   1.429       .  S
C1881      C1882   1.417       .  A
C1881      H1886   1.078       .  S
C1882      C1883   1.433       .  A
C1883      C1884   1.403       .  A
C1883      N1887   1.432       .  S
C1884      H1888   1.084       .  S
N1885      O1895   1.262       .  A
N1885      O1896   1.262       .  A
N1887      O1893   1.262       .  A
N1887      O1894   1.262       .  A
C1897      C1898   1.397       .  A
C1897      C1902   1.400       .  A
C1897      H1907   1.084       .  S
C1898      C1903   1.486       .  S
C1898      C1899   1.406       .  A
C1899      C1900   1.399       .  A
C1899      N1904   1.429       .  S
C1900      C1901   1.419       .  A
C1900      H1905   1.077       .  S
C1901      C1902   1.434       .  A
C1902      N1906   1.432       .  S
C1903      C1908   1.413       .  A
C1903      C1912   1.401       .  A
N1904      O1919   1.262       .  A
N1904      O1920   1.261       .  A
N1906      O1917   1.262       .  A
N1906      O1918   1.262       .  A
C1908      C1909   1.400       .  A
C1908      N1913   1.429       .  S
C1909      C1910   1.401       .  A
C1909      H1914   1.084       .  S
C1910      C1911   1.415       .  A
C1911      C1912   1.399       .  A
C1911      N1915   1.429       .  S
C1912      H1916   1.083       .  S
N1913      O1923   1.262       .  A
N1913      O1924   1.262       .  A
N1915      O1921   1.262       .  A
N1915      O1922   1.262       .  A
C1925      C1926   1.397       .  A
C1925      C1930   1.402       .  A
C1925      H1935   1.084       .  S
C1926      C1931   1.486       .  S
C1926      C1927   1.405       .  A
C1927      C1928   1.399       .  A
C1927      N1932   1.429       .  S
C1928      C1929   1.417       .  A
C1928      H1933   1.079       .  S
C1929      C1930   1.435       .  A
C1930      N1934   1.432       .  S
C1931      C1936   1.412       .  A
C1931      C1940   1.401       .  A
N1932      O1947   1.262       .  A
N1932      O1948   1.261       .  A
N1934      O1945   1.262       .  A
N1934      O1946   1.262       .  A
C1936      C1937   1.402       .  A
C1936      N1941   1.429       .  S
C1937      C1938   1.402       .  A
C1937      H1942   1.084       .  S
C1938      C1939   1.414       .  A
C1939      C1940   1.399       .  A
C1939      N1943   1.429       .  S
C1940      H1944   1.083       .  S
N1941      O1951   1.262       .  A
N1941      O1952   1.262       .  A
N1943      O1949   1.262       .  A
N1943      O1950   1.262       .  A
C1953      C1954   1.404       .  A
C1953      C1958   1.400       .  A
C1953      H1963   1.084       .  S
C1954      C1959   1.490       .  S
C1954      C1955   1.413       .  A
C1955      C1956   1.405       .  A
C1955      N1960   1.429       .  S
C1956      C1957   1.405       .  A
C1956      H1961   1.084       .  S
C1957      C1958   1.412       .  A
C1958      N1962   1.428       .  S
C1959      C1964   1.406       .  A
C1959      C1968   1.397       .  A
N1960      O1975   1.262       .  A
N1960      O1976   1.262       .  A
N1962      O1973   1.262       .  A
N1962      O1974   1.262       .  A
C1964      C1965   1.401       .  A
C1964      N1969   1.429       .  S
C1965      C1966   1.418       .  A
C1965      H1970   1.084       .  S
C1966      C1967   1.441       .  A
C1967      C1968   1.402       .  A
C1967      N1971   1.435       .  S
C1968      H1972   1.085       .  S
N1969      O1979   1.262       .  A
N1969      O1980   1.262       .  A
N1971      O1977   1.262       .  A
N1971      O1978   1.260       .  A
C1981      C1982   1.397       .  A
C1981      C1986   1.401       .  A
C1981      H1991   1.083       .  S
C1982      C1987   1.482       .  S
C1982      C1983   1.403       .  A
C1983      C1984   1.395       .  A
C1983      N1988   1.429       .  S
C1984      C1985   1.415       .  A
C1984      H1989   1.079       .  S
C1985      C1986   1.434       .  A
C1986      N1990   1.432       .  S
C1987      C1992   1.410       .  A
C1987      C1996   1.402       .  A
N1988      O2003   1.262       .  A
N1988      O2004   1.262       .  A
N1990      O2001   1.262       .  A
N1990      O2002   1.262       .  A
C1992      C1993   1.399       .  A
C1992      N1997   1.429       .  S
C1993      C1994   1.405       .  A
C1993      H1998   1.084       .  S
C1994      C1995   1.413       .  A
C1995      C1996   1.398       .  A
C1995      N1999   1.428       .  S
C1996      H2000   1.084       .  S
N1997      O2007   1.262       .  A
N1997      O2008   1.262       .  A
N1999      O2005   1.262       .  A
N1999      O2006   1.262       .  A
C2009      C2010   1.406       .  A
C2009      C2014   1.405       .  A
C2009      H2019   1.083       .  S
C2010      C2015   1.499       .  S
C2010      C2011   1.415       .  A
C2011      C2012   1.403       .  A
C2011      N2016   1.429       .  S
C2012      C2013   1.404       .  A
C2012      H2017   1.084       .  S
C2013      C2014   1.414       .  A
C2014      N2018   1.428       .  S
C2015      C2020   1.408       .  A
C2015      C2024   1.402       .  A
N2016      O2031   1.262       .  A
N2016      O2032   1.262       .  A
N2018      O2029   1.262       .  A
N2018      O2030   1.262       .  A
C2020      C2021   1.400       .  A
C2020      N2025   1.430       .  S
C2021      C2022   1.419       .  A
C2021      H2026   1.077       .  S
C2022      C2023   1.433       .  A
C2023      C2024   1.406       .  A
C2023      N2027   1.432       .  S
C2024      H2028   1.082       .  S
N2025      O2035   1.262       .  A
N2025      O2036   1.262       .  A
N2027      O2033   1.262       .  A
N2027      O2034   1.262       .  A
C2037      C2038   1.401       .  A
C2037      C2042   1.401       .  A
C2037      H2047   1.081       .  S
C2038      C2043   1.508       .  S
C2038      C2039   1.415       .  A
C2039      C2040   1.402       .  A
C2039      N2044   1.429       .  S
C2040      C2041   1.414       .  A
C2040      H2045   1.080       .  S
C2041      C2042   1.441       .  A
C2042      N2046   1.437       .  S
C2043      C2048   1.424       .  A
C2043      C2052   1.412       .  A
N2044      O2059   1.262       .  A
N2044      O2060   1.262       .  A
N2046      O2057   1.262       .  A
N2046      O2058   1.262       .  A
C2048      C2049   1.399       .  A
C2048      N2053   1.430       .  S
C2049      C2050   1.397       .  A
C2049      H2054   1.084       .  S
C2050      C2051   1.405       .  A
C2051      C2052   1.403       .  A
C2051      N2055   1.430       .  S
C2052      H2056   1.079       .  S
N2053      O2063   1.263       .  A
N2053      O2064   1.262       .  A
N2055      O2061   1.262       .  A
N2055      O2062   1.261       .  A
C2065      C2066   1.407       .  A
C2065      C2070   1.405       .  A
C2065      H2075   1.083       .  S
C2066      C2071   1.491       .  S
C2066      C2067   1.409       .  A
C2067      C2068   1.399       .  A
C2067      N2072   1.429       .  S
C2068      C2069   1.405       .  A
C2068      H2073   1.084       .  S
C2069      C2070   1.412       .  A
C2070      N2074   1.429       .  S
C2071      C2076   1.401       .  A
C2071      C2080   1.404       .  A
N2072      O2087   1.262       .  A
N2072      O2088   1.262       .  A
N2074      O2085   1.262       .  A
N2074      O2086   1.262       .  A
C2076      C2077   1.390       .  A
C2076      N2081   1.429       .  S
C2077      C2078   1.412       .  A
C2077      H2082   1.068       .  S
C2078      C2079   1.433       .  A
C2079      C2080   1.412       .  A
C2079      N2083   1.430       .  S
C2080      H2084   1.083       .  S
N2081      O2091   1.262       .  A
N2081      O2092   1.262       .  A
N2083      O2089   1.262       .  A
N2083      O2090   1.262       .  A
C2093      C2094   1.400       .  A
C2093      C2098   1.401       .  A
C2093      H2103   1.080       .  S
C2094      C2099   1.501       .  S
C2094      C2095   1.413       .  A
C2095      C2096   1.401       .  A
C2095      N2100   1.430       .  S
C2096      C2097   1.415       .  A
C2096      H2101   1.079       .  S
C2097      C2098   1.431       .  A
C2098      N2102   1.431       .  S
C2099      C2104   1.420       .  A
C2099      C2108   1.409       .  A
N2100      O2115   1.262       .  A
N2100      O2116   1.262       .  A
N2102      O2113   1.262       .  A
N2102      O2114   1.261       .  A
C2104      C2105   1.400       .  A
C2104      N2109   1.430       .  S
C2105      C2106   1.400       .  A
C2105      H2110   1.084       .  S
C2106      C2107   1.409       .  A
C2107      C2108   1.402       .  A
C2107      N2111   1.429       .  S
C2108      H2112   1.082       .  S
N2109      O2119   1.263       .  A
N2109      O2120   1.262       .  A
N2111      O2117   1.262       .  A
N2111      O2118   1.262       .  A
C2121      C2122   1.408       .  A
C2121      C2126   1.400       .  A
C2121      H2131   1.080       .  S
C2122      C2127   1.504       .  S
C2122      C2123   1.423       .  A
C2123      C2124   1.396       .  A
C2123      N2128   1.429       .  S
C2124      C2125   1.398       .  A
C2124      H2129   1.084       .  S
C2125      C2126   1.413       .  A
C2126      N2130   1.430       .  S
C2127      C2132   1.416       .  A
C2127      C2136   1.398       .  A
N2128      O2143   1.263       .  A
N2128      O2144   1.261       .  A
N2130      O2141   1.262       .  A
N2130      O2142   1.262       .  A
C2132      C2133   1.400       .  A
C2132      N2137   1.430       .  S
C2133      C2134   1.415       .  A
C2133      H2138   1.074       .  S
C2134      C2135   1.435       .  A
C2135      C2136   1.399       .  A
C2135      N2139   1.429       .  S
C2136      H2140   1.080       .  S
N2137      O2147   1.262       .  A
N2137      O2148   1.262       .  A
N2139      O2145   1.263       .  A
N2139      O2146   1.262       .  A
C2149      C2150   1.397       .  A
C2149      C2154   1.403       .  A
C2149      H2159   1.084       .  S
C2150      C2155   1.484       .  S
C2150      C2151   1.403       .  A
C2151      C2152   1.399       .  A
C2151      N2156   1.429       .  S
C2152      C2153   1.417       .  A
C2152      H2157   1.074       .  S
C2153      C2154   1.439       .  A
C2154      N2158   1.434       .  S
C2155      C2160   1.412       .  A
C2155      C2164   1.402       .  A
N2156      O2171   1.262       .  A
N2156      O2172   1.262       .  A
N2158      O2169   1.261       .  A
N2158      O2170   1.263       .  A
C2160      C2161   1.403       .  A
C2160      N2165   1.429       .  S
C2161      C2162   1.403       .  A
C2161      H2166   1.084       .  S
C2162      C2163   1.410       .  A
C2163      C2164   1.401       .  A
C2163      N2167   1.427       .  S
C2164      H2168   1.084       .  S
N2165      O2175   1.262       .  A
N2165      O2176   1.262       .  A
N2167      O2173   1.262       .  A
N2167      O2174   1.262       .  A
C2177      C2178   1.408       .  A
C2177      C2182   1.406       .  A
C2177      H2187   1.080       .  S
C2178      C2183   1.509       .  S
C2178      C2179   1.420       .  A
C2179      C2180   1.400       .  A
C2179      N2184   1.430       .  S
C2180      C2181   1.404       .  A
C2180      H2185   1.084       .  S
C2181      C2182   1.418       .  A
C2182      N2186   1.431       .  S
C2183      C2188   1.417       .  A
C2183      C2192   1.403       .  A
N2184      O2199   1.262       .  A
N2184      O2200   1.262       .  A
N2186      O2197   1.262       .  A
N2186      O2198   1.262       .  A
C2188      C2189   1.403       .  A
C2188      N2193   1.429       .  S
C2189      C2190   1.414       .  A
C2189      H2194   1.078       .  S
C2190      C2191   1.431       .  A
C2191      C2192   1.401       .  A
C2191      N2195   1.431       .  S
C2192      H2196   1.081       .  S
N2193      O2203   1.262       .  A
N2193      O2204   1.262       .  A
N2195      O2201   1.262       .  A
N2195      O2202   1.262       .  A
C2205      C2206   1.408       .  A
C2205      C2210   1.404       .  A
C2205      H2215   1.080       .  S
C2206      C2211   1.506       .  S
C2206      C2207   1.420       .  A
C2207      C2208   1.404       .  A
C2207      N2212   1.430       .  S
C2208      C2209   1.402       .  A
C2208      H2213   1.084       .  S
C2209      C2210   1.412       .  A
C2210      N2214   1.430       .  S
C2211      C2216   1.414       .  A
C2211      C2220   1.401       .  A
N2212      O2227   1.262       .  A
N2212      O2228   1.262       .  A
N2214      O2225   1.262       .  A
N2214      O2226   1.262       .  A
C2216      C2217   1.403       .  A
C2216      N2221   1.430       .  S
C2217      C2218   1.417       .  A
C2217      H2222   1.077       .  S
C2218      C2219   1.431       .  A
C2219      C2220   1.403       .  A
C2219      N2223   1.431       .  S
C2220      H2224   1.082       .  S
N2221      O2231   1.263       .  A
N2221      O2232   1.261       .  A
N2223      O2229   1.262       .  A
N2223      O2230   1.262       .  A
C2233      C2234   1.409       .  A
C2233      C2238   1.408       .  A
C2233      H2243   1.081       .  S
C2234      C2239   1.515       .  S
C2234      C2235   1.421       .  A
C2235      C2236   1.403       .  A
C2235      N2240   1.430       .  S
C2236      C2237   1.404       .  A
C2236      H2241   1.084       .  S
C2237      C2238   1.417       .  A
C2238      N2242   1.430       .  S
C2239      C2244   1.415       .  A
C2239      C2248   1.402       .  A
N2240      O2255   1.262       .  A
N2240      O2256   1.262       .  A
N2242      O2253   1.262       .  A
N2242      O2254   1.262       .  A
C2244      C2245   1.407       .  A
C2244      N2249   1.430       .  S
C2245      C2246   1.423       .  A
C2245      H2250   1.078       .  S
C2246      C2247   1.435       .  A
C2247      C2248   1.405       .  A
C2247      N2251   1.432       .  S
C2248      H2252   1.080       .  S
N2249      O2259   1.262       .  A
N2249      O2260   1.262       .  A
N2251      O2257   1.262       .  A
N2251      O2258   1.262       .  A
C2261      C2262   1.409       .  A
C2261      C2266   1.403       .  A
C2261      H2271   1.079       .  S
C2262      C2267   1.512       .  S
C2262      C2263   1.424       .  A
C2263      C2264   1.405       .  A
C2263      N2268   1.430       .  S
C2264      C2265   1.401       .  A
C2264      H2269   1.084       .  S
C2265      C2266   1.410       .  A
C2266      N2270   1.430       .  S
C2267      C2272   1.415       .  A
C2267      C2276   1.399       .  A
N2268      O2283   1.263       .  A
N2268      O2284   1.262       .  A
N2270      O2281   1.262       .  A
N2270      O2282   1.262       .  A
C2272      C2273   1.404       .  A
C2272      N2277   1.430       .  S
C2273      C2274   1.421       .  A
C2273      H2278   1.075       .  S
C2274      C2275   1.432       .  A
C2275      C2276   1.403       .  A
C2275      N2279   1.425       .  S
C2276      H2280   1.080       .  S
N2277      O2287   1.262       .  A
N2277      O2288   1.262       .  A
N2279      O2285   1.262       .  A
N2279      O2286   1.262       .  A
C2289      C2290   1.405       .  A
C2289      C2294   1.405       .  A
C2289      H2299   1.081       .  S
C2290      C2295   1.500       .  S
C2290      C2291   1.418       .  A
C2291      C2292   1.398       .  A
C2291      N2296   1.431       .  S
C2292      C2293   1.405       .  A
C2292      H2297   1.084       .  S
C2293      C2294   1.418       .  A
C2294      N2298   1.430       .  S
C2295      C2300   1.414       .  A
C2295      C2304   1.397       .  A
N2296      O2311   1.262       .  A
N2296      O2312   1.262       .  A
N2298      O2309   1.261       .  A
N2298      O2310   1.262       .  A
C2300      C2301   1.404       .  A
C2300      N2305   1.429       .  S
C2301      C2302   1.414       .  A
C2301      H2306   1.080       .  S
C2302      C2303   1.434       .  A
C2303      C2304   1.396       .  A
C2303      N2307   1.433       .  S
C2304      H2308   1.082       .  S
N2305      O2315   1.262       .  A
N2305      O2316   1.262       .  A
N2307      O2313   1.262       .  A
N2307      O2314   1.262       .  A
C2317      C2318   1.394       .  A
C2317      C2322   1.402       .  A
C2317      H2327   1.085       .  S
C2318      C2323   1.478       .  S
C2318      C2319   1.400       .  A
C2319      C2320   1.397       .  A
C2319      N2324   1.428       .  S
C2320      C2321   1.418       .  A
C2320      H2325   1.083       .  S
C2321      C2322   1.443       .  A
C2322      N2326   1.435       .  S
C2323      C2328   1.409       .  A
C2323      C2332   1.402       .  A
N2324      O2339   1.262       .  A
N2324      O2340   1.261       .  A
N2326      O2337   1.262       .  A
N2326      O2338   1.260       .  A
C2328      C2329   1.399       .  A
C2328      N2333   1.428       .  S
C2329      C2330   1.401       .  A
C2329      H2334   1.084       .  S
C2330      C2331   1.410       .  A
C2331      C2332   1.402       .  A
C2331      N2335   1.428       .  S
C2332      H2336   1.084       .  S
N2333      O2343   1.262       .  A
N2333      O2344   1.262       .  A
N2335      O2341   1.262       .  A
N2335      O2342   1.262       .  A
C2345      C2346   1.406       .  A
C2345      C2350   1.415       .  A
C2345      H2355   1.084       .  S
C2346      C2351   1.509       .  S
C2346      C2347   1.407       .  A
C2347      C2348   1.403       .  A
C2347      N2352   1.429       .  S
C2348      C2349   1.421       .  A
C2348      H2353   1.073       .  S
C2349      C2350   1.438       .  A
C2350      N2354   1.436       .  S
C2351      C2356   1.422       .  A
C2351      C2360   1.408       .  A
N2352      O2367   1.262       .  A
N2352      O2368   1.263       .  A
N2354      O2365   1.262       .  A
N2354      O2366   1.259       .  A
C2356      C2357   1.410       .  A
C2356      N2361   1.429       .  S
C2357      C2358   1.403       .  A
C2357      H2362   1.084       .  S
C2358      C2359   1.410       .  A
C2359      C2360   1.406       .  A
C2359      N2363   1.428       .  S
C2360      H2364   1.084       .  S
N2361      O2371   1.262       .  A
N2361      O2372   1.262       .  A
N2363      O2369   1.262       .  A
N2363      O2370   1.262       .  A
C2373      C2374   1.405       .  A
C2373      C2378   1.405       .  A
C2373      H2383   1.084       .  S
C2374      C2379   1.489       .  S
C2374      C2375   1.413       .  A
C2375      C2376   1.404       .  A
C2375      N2380   1.429       .  S
C2376      C2377   1.401       .  A
C2376      H2381   1.084       .  S
C2377      C2378   1.408       .  A
C2378      N2382   1.428       .  S
C2379      C2384   1.400       .  A
C2379      C2388   1.402       .  A
N2380      O2395   1.262       .  A
N2380      O2396   1.262       .  A
N2382      O2393   1.262       .  A
N2382      O2394   1.262       .  A
C2384      C2385   1.395       .  A
C2384      N2389   1.429       .  S
C2385      C2386   1.422       .  A
C2385      H2390   1.077       .  S
C2386      C2387   1.435       .  A
C2387      C2388   1.412       .  A
C2387      N2391   1.432       .  S
C2388      H2392   1.084       .  S
N2389      O2399   1.262       .  A
N2389      O2400   1.262       .  A
N2391      O2397   1.261       .  A
N2391      O2398   1.262       .  A
C2401      C2402   1.394       .  A
C2401      C2406   1.400       .  A
C2401      H2411   1.083       .  S
C2402      C2407   1.498       .  S
C2402      C2403   1.409       .  A
C2403      C2404   1.406       .  A
C2403      N2408   1.429       .  S
C2404      C2405   1.421       .  A
C2404      H2409   1.077       .  S
C2405      C2406   1.435       .  A
C2406      N2410   1.425       .  S
C2407      C2412   1.417       .  A
C2407      C2416   1.405       .  A
N2408      O2423   1.262       .  A
N2408      O2424   1.262       .  A
N2410      O2421   1.262       .  A
N2410      O2422   1.263       .  A
C2412      C2413   1.403       .  A
C2412      N2417   1.430       .  S
C2413      C2414   1.402       .  A
C2413      H2418   1.084       .  S
C2414      C2415   1.412       .  A
C2415      C2416   1.404       .  A
C2415      N2419   1.429       .  S
C2416      H2420   1.082       .  S
N2417      O2427   1.262       .  A
N2417      O2428   1.261       .  A
N2419      O2425   1.262       .  A
N2419      O2426   1.262       .  A
C2429      C2430   1.396       .  A
C2429      C2434   1.403       .  A
C2429      H2439   1.084       .  S
C2430      C2435   1.477       .  S
C2430      C2431   1.402       .  A
C2431      C2432   1.397       .  A
C2431      N2436   1.429       .  S
C2432      C2433   1.416       .  A
C2432      H2437   1.077       .  S
C2433      C2434   1.434       .  A
C2434      N2438   1.433       .  S
C2435      C2440   1.410       .  A
C2435      C2444   1.404       .  A
N2436      O2451   1.262       .  A
N2436      O2452   1.262       .  A
N2438      O2449   1.262       .  A
N2438      O2450   1.261       .  A
C2440      C2441   1.399       .  A
C2440      N2445   1.428       .  S
C2441      C2442   1.399       .  A
C2441      H2446   1.084       .  S
C2442      C2443   1.407       .  A
C2443      C2444   1.400       .  A
C2443      N2447   1.429       .  S
C2444      H2448   1.084       .  S
N2445      O2455   1.262       .  A
N2445      O2456   1.261       .  A
N2447      O2453   1.262       .  A
N2447      O2454   1.262       .  A
C2457      C2458   1.405       .  A
C2457      C2462   1.406       .  A
C2457      H2467   1.084       .  S
C2458      C2463   1.493       .  S
C2458      C2459   1.412       .  A
C2459      C2460   1.401       .  A
C2459      N2464   1.430       .  S
C2460      C2461   1.405       .  A
C2460      H2465   1.084       .  S
C2461      C2462   1.415       .  A
C2462      N2466   1.429       .  S
C2463      C2468   1.407       .  A
C2463      C2472   1.400       .  A
N2464      O2479   1.262       .  A
N2464      O2480   1.262       .  A
N2466      O2477   1.262       .  A
N2466      O2478   1.262       .  A
C2468      C2469   1.401       .  A
C2468      N2473   1.430       .  S
C2469      C2470   1.418       .  A
C2469      H2474   1.079       .  S
C2470      C2471   1.433       .  A
C2471      C2472   1.405       .  A
C2471      N2475   1.432       .  S
C2472      H2476   1.084       .  S
N2473      O2483   1.262       .  A
N2473      O2484   1.262       .  A
N2475      O2481   1.262       .  A
N2475      O2482   1.262       .  A
C2485      C2486   1.397       .  A
C2485      C2490   1.402       .  A
C2485      H2495   1.084       .  S
C2486      C2491   1.486       .  S
C2486      C2487   1.406       .  A
C2487      C2488   1.399       .  A
C2487      N2492   1.429       .  S
C2488      C2489   1.415       .  A
C2488      H2493   1.077       .  S
C2489      C2490   1.434       .  A
C2490      N2494   1.431       .  S
C2491      C2496   1.412       .  A
C2491      C2500   1.402       .  A
N2492      O2507   1.262       .  A
N2492      O2508   1.261       .  A
N2494      O2505   1.262       .  A
N2494      O2506   1.261       .  A
C2496      C2497   1.400       .  A
C2496      N2501   1.429       .  S
C2497      C2498   1.403       .  A
C2497      H2502   1.084       .  S
C2498      C2499   1.414       .  A
C2499      C2500   1.402       .  A
C2499      N2503   1.428       .  S
C2500      H2504   1.083       .  S
N2501      O2511   1.262       .  A
N2501      O2512   1.262       .  A
N2503      O2509   1.262       .  A
N2503      O2510   1.262       .  A
C2513      C2514   1.399       .  A
C2513      C2518   1.402       .  A
C2513      H2523   1.085       .  S
C2514      C2519   1.492       .  S
C2514      C2515   1.406       .  A
C2515      C2516   1.400       .  A
C2515      N2520   1.428       .  S
C2516      C2517   1.423       .  A
C2516      H2521   1.083       .  S
C2517      C2518   1.437       .  A
C2518      N2522   1.429       .  S
C2519      C2524   1.414       .  A
C2519      C2528   1.404       .  A
N2520      O2535   1.262       .  A
N2520      O2536   1.262       .  A
N2522      O2533   1.263       .  A
N2522      O2534   1.262       .  A
C2524      C2525   1.405       .  A
C2524      N2529   1.429       .  S
C2525      C2526   1.406       .  A
C2525      H2530   1.084       .  S
C2526      C2527   1.413       .  A
C2527      C2528   1.398       .  A
C2527      N2531   1.428       .  S
C2528      H2532   1.084       .  S
N2529      O2539   1.262       .  A
N2529      O2540   1.262       .  A
N2531      O2537   1.262       .  A
N2531      O2538   1.262       .  A
C2541      C2542   1.397       .  A
C2541      C2546   1.394       .  A
C2541      H2551   1.084       .  S
C2542      C2547   1.470       .  S
C2542      C2543   1.407       .  A
C2543      C2544   1.396       .  A
C2543      N2548   1.428       .  S
C2544      C2545   1.404       .  A
C2544      H2549   1.084       .  S
C2545      C2546   1.406       .  A
C2546      N2550   1.420       .  S
C2547      C2552   1.399       .  A
C2547      C2556   1.394       .  A
N2548      O2563   1.262       .  A
N2548      O2564   1.261       .  A
N2550      O2561   1.261       .  A
N2550      O2562   1.261       .  A
C2552      C2553   1.391       .  A
C2552      N2557   1.430       .  S
C2553      C2554   1.418       .  A
C2553      H2558   1.084       .  S
C2554      C2555   1.441       .  A
C2555      C2556   1.400       .  A
C2555      N2559   1.435       .  S
C2556      H2560   1.084       .  S
N2557      O2567   1.262       .  A
N2557      O2568   1.261       .  A
N2559      O2565   1.262       .  A
N2559      O2566   1.260       .  A
C2569      C2570   1.392       .  A
C2569      C2574   1.401       .  A
C2569      H2579   1.084       .  S
C2570      C2575   1.479       .  S
C2570      C2571   1.400       .  A
C2571      C2572   1.398       .  A
C2571      N2576   1.428       .  S
C2572      C2573   1.421       .  A
C2572      H2577   1.079       .  S
C2573      C2574   1.434       .  A
C2574      N2578   1.426       .  S
C2575      C2580   1.406       .  A
C2575      C2584   1.401       .  A
N2576      O2591   1.262       .  A
N2576      O2592   1.262       .  A
N2578      O2589   1.263       .  A
N2578      O2590   1.262       .  A
C2580      C2581   1.398       .  A
C2580      N2585   1.428       .  S
C2581      C2582   1.405       .  A
C2581      H2586   1.084       .  S
C2582      C2583   1.417       .  A
C2583      C2584   1.402       .  A
C2583      N2587   1.429       .  S
C2584      H2588   1.084       .  S
N2585      O2595   1.262       .  A
N2585      O2596   1.262       .  A
N2587      O2593   1.262       .  A
N2587      O2594   1.262       .  A
C2597      C2598   1.391       .  A
C2597      C2602   1.403       .  A
C2597      H2607   1.083       .  S
C2598      C2603   1.489       .  S
C2598      C2599   1.405       .  A
C2599      C2600   1.398       .  A
C2599      N2604   1.431       .  S
C2600      C2601   1.414       .  A
C2600      H2605   1.076       .  S
C2601      C2602   1.451       .  A
C2602      N2606   1.435       .  S
C2603      C2608   1.414       .  A
C2603      C2612   1.401       .  A
N2604      O2619   1.262       .  A
N2604      O2620   1.262       .  A
N2606      O2617   1.262       .  A
N2606      O2618   1.260       .  A
C2608      C2609   1.398       .  A
C2608      N2613   1.429       .  S
C2609      C2610   1.402       .  A
C2609      H2614   1.084       .  S
C2610      C2611   1.407       .  A
C2611      C2612   1.398       .  A
C2611      N2615   1.420       .  S
C2612      H2616   1.083       .  S
N2613      O2623   1.262       .  A
N2613      O2624   1.261       .  A
N2615      O2621   1.261       .  A
N2615      O2622   1.261       .  A
C2625      C2626   1.404       .  A
C2625      C2630   1.403       .  A
C2625      H2635   1.083       .  S
C2626      C2631   1.492       .  S
C2626      C2627   1.413       .  A
C2627      C2628   1.401       .  A
C2627      N2632   1.429       .  S
C2628      C2629   1.402       .  A
C2628      H2633   1.084       .  S
C2629      C2630   1.414       .  A
C2630      N2634   1.429       .  S
C2631      C2636   1.407       .  A
C2631      C2640   1.400       .  A
N2632      O2647   1.262       .  A
N2632      O2648   1.262       .  A
N2634      O2645   1.262       .  A
N2634      O2646   1.262       .  A
C2636      C2637   1.400       .  A
C2636      N2641   1.429       .  S
C2637      C2638   1.419       .  A
C2637      H2642   1.078       .  S
C2638      C2639   1.433       .  A
C2639      C2640   1.403       .  A
C2639      N2643   1.432       .  S
C2640      H2644   1.083       .  S
N2641      O2651   1.262       .  A
N2641      O2652   1.262       .  A
N2643      O2649   1.262       .  A
N2643      O2650   1.262       .  A
C2653      C2654   1.397       .  A
C2653      C2658   1.404       .  A
C2653      H2663   1.084       .  S
C2654      C2659   1.484       .  S
C2654      C2655   1.401       .  A
C2655      C2656   1.399       .  A
C2655      N2660   1.428       .  S
C2656      C2657   1.420       .  A
C2656      H2661   1.083       .  S
C2657      C2658   1.440       .  A
C2658      N2662   1.437       .  S
C2659      C2664   1.411       .  A
C2659      C2668   1.404       .  A
N2660      O2675   1.262       .  A
N2660      O2676   1.262       .  A
N2662      O2673   1.262       .  A
N2662      O2674   1.260       .  A
C2664      C2665   1.401       .  A
C2664      N2669   1.428       .  S
C2665      C2666   1.400       .  A
C2665      H2670   1.084       .  S
C2666      C2667   1.409       .  A
C2667      C2668   1.404       .  A
C2667      N2671   1.429       .  S
C2668      H2672   1.084       .  S
N2669      O2679   1.262       .  A
N2669      O2680   1.262       .  A
N2671      O2677   1.262       .  A
N2671      O2678   1.262       .  A
C2681      C2682   1.396       .  A
C2681      C2686   1.398       .  A
C2681      H2691   1.081       .  S
C2682      C2687   1.494       .  S
C2682      C2683   1.409       .  A
C2683      C2684   1.400       .  A
C2683      N2688   1.430       .  S
C2684      C2685   1.422       .  A
C2684      H2689   1.079       .  S
C2685      C2686   1.429       .  A
C2686      N2690   1.426       .  S
C2687      C2692   1.419       .  A
C2687      C2696   1.406       .  A
N2688      O2703   1.262       .  A
N2688      O2704   1.262       .  A
N2690      O2701   1.262       .  A
N2690      O2702   1.263       .  A
C2692      C2693   1.399       .  A
C2692      N2697   1.430       .  S
C2693      C2694   1.398       .  A
C2693      H2698   1.084       .  S
C2694      C2695   1.407       .  A
C2695      C2696   1.399       .  A
C2695      N2699   1.429       .  S
C2696      H2700   1.082       .  S
N2697      O2707   1.262       .  A
N2697      O2708   1.261       .  A
N2699      O2705   1.262       .  A
N2699      O2706   1.262       .  A
C2709      C2710   1.400       .  A
C2709      C2714   1.404       .  A
C2709      H2719   1.083       .  S
C2710      C2715   1.495       .  S
C2710      C2711   1.409       .  A
C2711      C2712   1.399       .  A
C2711      N2716   1.430       .  S
C2712      C2713   1.417       .  A
C2712      H2717   1.075       .  S
C2713      C2714   1.434       .  A
C2714      N2718   1.432       .  S
C2715      C2720   1.416       .  A
C2715      C2724   1.406       .  A
N2716      O2731   1.262       .  A
N2716      O2732   1.262       .  A
N2718      O2729   1.263       .  A
N2718      O2730   1.261       .  A
C2720      C2721   1.403       .  A
C2720      N2725   1.429       .  S
C2721      C2722   1.402       .  A
C2721      H2726   1.084       .  S
C2722      C2723   1.410       .  A
C2723      C2724   1.400       .  A
C2723      N2727   1.430       .  S
C2724      H2728   1.082       .  S
N2725      O2735   1.262       .  A
N2725      O2736   1.262       .  A
N2727      O2733   1.262       .  A
N2727      O2734   1.262       .  A
C2737      C2738   1.397       .  A
C2737      C2742   1.403       .  A
C2737      H2747   1.084       .  S
C2738      C2743   1.477       .  S
C2738      C2739   1.402       .  A
C2739      C2740   1.395       .  A
C2739      N2744   1.430       .  S
C2740      C2741   1.415       .  A
C2740      H2745   1.077       .  S
C2741      C2742   1.433       .  A
C2742      N2746   1.434       .  S
C2743      C2748   1.408       .  A
C2743      C2752   1.402       .  A
N2744      O2759   1.262       .  A
N2744      O2760   1.261       .  A
N2746      O2757   1.262       .  A
N2746      O2758   1.261       .  A
C2748      C2749   1.397       .  A
C2748      N2753   1.429       .  S
C2749      C2750   1.402       .  A
C2749      H2754   1.084       .  S
C2750      C2751   1.412       .  A
C2751      C2752   1.402       .  A
C2751      N2755   1.429       .  S
C2752      H2756   1.084       .  S
N2753      O2763   1.262       .  A
N2753      O2764   1.261       .  A
N2755      O2761   1.262       .  A
N2755      O2762   1.262       .  A
C2765      C2766   1.400       .  A
C2765      C2770   1.407       .  A
C2765      H2775   1.083       .  S
C2766      C2771   1.496       .  S
C2766      C2767   1.407       .  A
C2767      C2768   1.399       .  A
C2767      N2772   1.429       .  S
C2768      C2769   1.419       .  A
C2768      H2773   1.083       .  S
C2769      C2770   1.441       .  A
C2770      N2774   1.434       .  S
C2771      C2776   1.416       .  A
C2771      C2780   1.406       .  A
N2772      O2787   1.262       .  A
N2772      O2788   1.262       .  A
N2774      O2785   1.260       .  A
N2774      O2786   1.262       .  A
C2776      C2777   1.402       .  A
C2776      N2781   1.429       .  S
C2777      C2778   1.401       .  A
C2777      H2782   1.084       .  S
C2778      C2779   1.410       .  A
C2779      C2780   1.405       .  A
C2779      N2783   1.428       .  S
C2780      H2784   1.083       .  S
N2781      O2791   1.262       .  A
N2781      O2792   1.262       .  A
N2783      O2789   1.262       .  A
N2783      O2790   1.262       .  A
C2793      C2794   1.403       .  A
C2793      C2798   1.401       .  A
C2793      H2803   1.084       .  S
C2794      C2799   1.480       .  S
C2794      C2795   1.408       .  A
C2795      C2796   1.401       .  A
C2795      N2800   1.428       .  S
C2796      C2797   1.404       .  A
C2796      H2801   1.084       .  S
C2797      C2798   1.411       .  A
C2798      N2802   1.429       .  S
C2799      C2804   1.404       .  A
C2799      C2808   1.398       .  A
N2800      O2815   1.262       .  A
N2800      O2816   1.262       .  A
N2802      O2813   1.262       .  A
N2802      O2814   1.262       .  A
C2804      C2805   1.400       .  A
C2804      N2809   1.430       .  S
C2805      C2806   1.418       .  A
C2805      H2810   1.084       .  S
C2806      C2807   1.428       .  A
C2807      C2808   1.403       .  A
C2807      N2811   1.432       .  S
C2808      H2812   1.084       .  S
N2809      O2819   1.261       .  A
N2809      O2820   1.262       .  A
N2811      O2817   1.263       .  A
N2811      O2818   1.262       .  A
C2821      C2822   1.410       .  A
C2821      C2826   1.404       .  A
C2821      H2831   1.081       .  S
C2822      C2827   1.515       .  S
C2822      C2823   1.421       .  A
C2823      C2824   1.405       .  A
C2823      N2828   1.429       .  S
C2824      C2825   1.406       .  A
C2824      H2829   1.084       .  S
C2825      C2826   1.415       .  A
C2826      N2830   1.431       .  S
C2827      C2832   1.414       .  A
C2827      C2836   1.407       .  A
N2828      O2843   1.262       .  A
N2828      O2844   1.262       .  A
N2830      O2841   1.262       .  A
N2830      O2842   1.261       .  A
C2832      C2833   1.400       .  A
C2832      N2837   1.430       .  S
C2833      C2834   1.418       .  A
C2833      H2838   1.082       .  S
C2834      C2835   1.435       .  A
C2835      C2836   1.412       .  A
C2835      N2839   1.432       .  S
C2836      H2840   1.079       .  S
N2837      O2847   1.262       .  A
N2837      O2848   1.262       .  A
N2839      O2845   1.261       .  A
N2839      O2846   1.263       .  A
C2849      C2850   1.399       .  A
C2849      C2854   1.402       .  A
C2849      H2859   1.083       .  S
C2850      C2855   1.487       .  S
C2850      C2851   1.406       .  A
C2851      C2852   1.394       .  A
C2851      N2856   1.429       .  S
C2852      C2853   1.417       .  A
C2852      H2857   1.084       .  S
C2853      C2854   1.439       .  A
C2854      N2858   1.436       .  S
C2855      C2860   1.414       .  A
C2855      C2864   1.405       .  A
N2856      O2871   1.262       .  A
N2856      O2872   1.262       .  A
N2858      O2869   1.260       .  A
N2858      O2870   1.262       .  A
C2860      C2861   1.396       .  A
C2860      N2865   1.429       .  S
C2861      C2862   1.400       .  A
C2861      H2866   1.084       .  S
C2862      C2863   1.412       .  A
C2863      C2864   1.401       .  A
C2863      N2867   1.429       .  S
C2864      H2868   1.083       .  S
N2865      O2875   1.262       .  A
N2865      O2876   1.262       .  A
N2867      O2873   1.262       .  A
N2867      O2874   1.262       .  A
C2877      C2878   1.395       .  A
C2877      C2882   1.401       .  A
C2877      H2887   1.084       .  S
C2878      C2883   1.492       .  S
C2878      C2879   1.406       .  A
C2879      C2880   1.403       .  A
C2879      N2884   1.428       .  S
C2880      C2881   1.420       .  A
C2880      H2885   1.084       .  S
C2881      C2882   1.442       .  A
C2882      N2886   1.430       .  S
C2883      C2888   1.416       .  A
C2883      C2892   1.403       .  A
N2884      O2899   1.262       .  A
N2884      O2900   1.262       .  A
N2886      O2897   1.262       .  A
N2886      O2898   1.261       .  A
C2888      C2889   1.401       .  A
C2888      N2893   1.429       .  S
C2889      C2890   1.400       .  A
C2889      H2894   1.084       .  S
C2890      C2891   1.413       .  A
C2891      C2892   1.404       .  A
C2891      N2895   1.428       .  S
C2892      H2896   1.083       .  S
N2893      O2903   1.262       .  A
N2893      O2904   1.262       .  A
N2895      O2901   1.262       .  A
N2895      O2902   1.262       .  A
C2905      C2906   1.398       .  A
C2905      C2910   1.398       .  A
C2905      H2915   1.084       .  S
C2906      C2911   1.491       .  S
C2906      C2907   1.407       .  A
C2907      C2908   1.399       .  A
C2907      N2912   1.430       .  S
C2908      C2909   1.420       .  A
C2908      H2913   1.076       .  S
C2909      C2910   1.432       .  A
C2910      N2914   1.429       .  S
C2911      C2916   1.415       .  A
C2911      C2920   1.408       .  A
N2912      O2927   1.262       .  A
N2912      O2928   1.262       .  A
N2914      O2925   1.262       .  A
N2914      O2926   1.262       .  A
C2916      C2917   1.398       .  A
C2916      N2921   1.429       .  S
C2917      C2918   1.399       .  A
C2917      H2922   1.084       .  S
C2918      C2919   1.409       .  A
C2919      C2920   1.400       .  A
C2919      N2923   1.430       .  S
C2920      H2924   1.084       .  S
N2921      O2931   1.262       .  A
N2921      O2932   1.262       .  A
N2923      O2929   1.262       .  A
N2923      O2930   1.262       .  A
C2933      C2934   1.395       .  A
C2933      C2938   1.403       .  A
C2933      H2943   1.084       .  S
C2934      C2939   1.490       .  S
C2934      C2935   1.403       .  A
C2935      C2936   1.401       .  A
C2935      N2940   1.428       .  S
C2936      C2937   1.420       .  A
C2936      H2941   1.084       .  S
C2937      C2938   1.443       .  A
C2938      N2942   1.432       .  S
C2939      C2944   1.411       .  A
C2939      C2948   1.406       .  A
N2940      O2955   1.262       .  A
N2940      O2956   1.262       .  A
N2942      O2953   1.262       .  A
N2942      O2954   1.261       .  A
C2944      C2945   1.398       .  A
C2944      N2949   1.428       .  S
C2945      C2946   1.401       .  A
C2945      H2950   1.084       .  S
C2946      C2947   1.414       .  A
C2947      C2948   1.408       .  A
C2947      N2951   1.429       .  S
C2948      H2952   1.084       .  S
N2949      O2959   1.262       .  A
N2949      O2960   1.262       .  A
N2951      O2957   1.262       .  A
N2951      O2958   1.262       .  A
C2961      C2962   1.395       .  A
C2961      C2966   1.395       .  A
C2961      H2971   1.081       .  S
C2962      C2967   1.498       .  S
C2962      C2963   1.415       .  A
C2963      C2964   1.402       .  A
C2963      N2968   1.430       .  S
C2964      C2965   1.414       .  A
C2964      H2969   1.078       .  S
C2965      C2966   1.427       .  A
C2966      N2970   1.423       .  S
C2967      C2972   1.421       .  A
C2967      C2976   1.404       .  A
N2968      O2983   1.262       .  A
N2968      O2984   1.262       .  A
N2970      O2981   1.262       .  A
N2970      O2982   1.263       .  A
C2972      C2973   1.398       .  A
C2972      N2977   1.431       .  S
C2973      C2974   1.401       .  A
C2973      H2978   1.084       .  S
C2974      C2975   1.414       .  A
C2975      C2976   1.398       .  A
C2975      N2979   1.430       .  S
C2976      H2980   1.080       .  S
N2977      O2987   1.263       .  A
N2977      O2988   1.262       .  A
N2979      O2985   1.262       .  A
N2979      O2986   1.262       .  A
C2989      C2990   1.404       .  A
C2989      C2994   1.398       .  A
C2989      H2999   1.082       .  S
C2990      C2995   1.490       .  S
C2990      C2991   1.416       .  A
C2991      C2992   1.402       .  A
C2991      N2996   1.429       .  S
C2992      C2993   1.400       .  A
C2992      H2997   1.084       .  S
C2993      C2994   1.407       .  A
C2994      N2998   1.428       .  S
C2995      C3000   1.409       .  A
C2995      C3004   1.398       .  A
N2996      O3011   1.262       .  A
N2996      O3012   1.262       .  A
N2998      O3009   1.262       .  A
N2998      O3010   1.262       .  A
C3000      C3001   1.399       .  A
C3000      N3005   1.430       .  S
C3001      C3002   1.413       .  A
C3001      H3006   1.080       .  S
C3002      C3003   1.432       .  A
C3003      C3004   1.402       .  A
C3003      N3007   1.431       .  S
C3004      H3008   1.083       .  S
N3005      O3015   1.262       .  A
N3005      O3016   1.261       .  A
N3007      O3013   1.262       .  A
N3007      O3014   1.262       .  A
C3017      C3018   1.395       .  A
C3017      C3022   1.399       .  A
C3017      H3027   1.084       .  S
C3018      C3023   1.466       .  S
C3018      C3019   1.399       .  A
C3019      C3020   1.391       .  A
C3019      N3024   1.430       .  S
C3020      C3021   1.418       .  A
C3020      H3025   1.078       .  S
C3021      C3022   1.430       .  A
C3022      N3026   1.433       .  S
C3023      C3028   1.407       .  A
C3023      C3032   1.400       .  A
N3024      O3039   1.262       .  A
N3024      O3040   1.261       .  A
N3026      O3037   1.262       .  A
N3026      O3038   1.262       .  A
C3028      C3029   1.395       .  A
C3028      N3033   1.429       .  S
C3029      C3030   1.401       .  A
C3029      H3034   1.084       .  S
C3030      C3031   1.408       .  A
C3031      C3032   1.396       .  A
C3031      N3035   1.428       .  S
C3032      H3036   1.084       .  S
N3033      O3043   1.262       .  A
N3033      O3044   1.261       .  A
N3035      O3041   1.262       .  A
N3035      O3042   1.262       .  A
C3045      C3046   1.398       .  A
C3045      C3050   1.399       .  A
C3045      H3055   1.083       .  S
C3046      C3051   1.490       .  S
C3046      C3047   1.408       .  A
C3047      C3048   1.399       .  A
C3047      N3052   1.429       .  S
C3048      C3049   1.413       .  A
C3048      H3053   1.076       .  S
C3049      C3050   1.435       .  A
C3050      N3054   1.434       .  S
C3051      C3056   1.415       .  A
C3051      C3060   1.406       .  A
N3052      O3067   1.262       .  A
N3052      O3068   1.262       .  A
N3054      O3065   1.261       .  A
N3054      O3066   1.262       .  A
C3056      C3057   1.399       .  A
C3056      N3061   1.429       .  S
C3057      C3058   1.399       .  A
C3057      H3062   1.084       .  S
C3058      C3059   1.407       .  A
C3059      C3060   1.401       .  A
C3059      N3063   1.428       .  S
C3060      H3064   1.083       .  S
N3061      O3071   1.262       .  A
N3061      O3072   1.262       .  A
N3063      O3069   1.262       .  A
N3063      O3070   1.262       .  A
C3073      C3074   1.408       .  A
C3073      C3078   1.399       .  A
C3073      H3083   1.081       .  S
C3074      C3079   1.493       .  S
C3074      C3075   1.421       .  A
C3075      C3076   1.395       .  A
C3075      N3080   1.431       .  S
C3076      C3077   1.395       .  A
C3076      H3081   1.084       .  S
C3077      C3078   1.404       .  A
C3078      N3082   1.429       .  S
C3079      C3084   1.410       .  A
C3079      C3088   1.397       .  A
N3080      O3095   1.262       .  A
N3080      O3096   1.262       .  A
N3082      O3093   1.261       .  A
N3082      O3094   1.262       .  A
C3084      C3085   1.401       .  A
C3084      N3089   1.429       .  S
C3085      C3086   1.418       .  A
C3085      H3090   1.078       .  S
C3086      C3087   1.431       .  A
C3087      C3088   1.394       .  A
C3087      N3091   1.431       .  S
C3088      H3092   1.081       .  S
N3089      O3099   1.262       .  A
N3089      O3100   1.262       .  A
N3091      O3097   1.262       .  A
N3091      O3098   1.262       .  A
C3101      C3102   1.406       .  A
C3101      C3106   1.406       .  A
C3101      H3111   1.083       .  S
C3102      C3107   1.498       .  S
C3102      C3103   1.415       .  A
C3103      C3104   1.402       .  A
C3103      N3108   1.429       .  S
C3104      C3105   1.403       .  A
C3104      H3109   1.084       .  S
C3105      C3106   1.412       .  A
C3106      N3110   1.428       .  S
C3107      C3112   1.407       .  A
C3107      C3116   1.400       .  A
N3108      O3123   1.262       .  A
N3108      O3124   1.262       .  A
N3110      O3121   1.262       .  A
N3110      O3122   1.262       .  A
C3112      C3113   1.400       .  A
C3112      N3117   1.429       .  S
C3113      C3114   1.419       .  A
C3113      H3118   1.084       .  S
C3114      C3115   1.438       .  A
C3115      C3116   1.409       .  A
C3115      N3119   1.429       .  S
C3116      H3120   1.084       .  S
N3117      O3127   1.262       .  A
N3117      O3128   1.262       .  A
N3119      O3125   1.262       .  A
N3119      O3126   1.261       .  A
C3129      C3130   1.408       .  A
C3129      C3134   1.403       .  A
C3129      H3139   1.081       .  S
C3130      C3135   1.506       .  S
C3130      C3131   1.420       .  A
C3131      C3132   1.405       .  A
C3131      N3136   1.430       .  S
C3132      C3133   1.402       .  A
C3132      H3137   1.084       .  S
C3133      C3134   1.410       .  A
C3134      N3138   1.429       .  S
C3135      C3140   1.414       .  A
C3135      C3144   1.402       .  A
N3136      O3151   1.262       .  A
N3136      O3152   1.262       .  A
N3138      O3149   1.262       .  A
N3138      O3150   1.262       .  A
C3140      C3141   1.403       .  A
C3140      N3145   1.429       .  S
C3141      C3142   1.416       .  A
C3141      H3146   1.078       .  S
C3142      C3143   1.433       .  A
C3143      C3144   1.405       .  A
C3143      N3147   1.432       .  S
C3144      H3148   1.082       .  S
N3145      O3155   1.262       .  A
N3145      O3156   1.261       .  A
N3147      O3153   1.262       .  A
N3147      O3154   1.262       .  A
C3157      C3158   1.404       .  A
C3157      C3162   1.402       .  A
C3157      H3167   1.084       .  S
C3158      C3163   1.487       .  S
C3158      C3159   1.411       .  A
C3159      C3160   1.403       .  A
C3159      N3164   1.428       .  S
C3160      C3161   1.403       .  A
C3160      H3165   1.084       .  S
C3161      C3162   1.410       .  A
C3162      N3166   1.428       .  S
C3163      C3168   1.402       .  A
C3163      C3172   1.398       .  A
N3164      O3179   1.262       .  A
N3164      O3180   1.262       .  A
N3166      O3177   1.262       .  A
N3166      O3178   1.262       .  A
C3168      C3169   1.396       .  A
C3168      N3173   1.429       .  S
C3169      C3170   1.421       .  A
C3169      H3174   1.078       .  S
C3170      C3171   1.434       .  A
C3171      C3172   1.408       .  A
C3171      N3175   1.431       .  S
C3172      H3176   1.084       .  S
N3173      O3183   1.262       .  A
N3173      O3184   1.262       .  A
N3175      O3181   1.262       .  A
N3175      O3182   1.262       .  A
C3185      C3186   1.398       .  A
C3185      C3190   1.408       .  A
C3185      H3195   1.084       .  S
C3186      C3191   1.487       .  S
C3186      C3187   1.402       .  A
C3187      C3188   1.401       .  A
C3187      N3192   1.429       .  S
C3188      C3189   1.419       .  A
C3188      H3193   1.080       .  S
C3189      C3190   1.432       .  A
C3190      N3194   1.431       .  S
C3191      C3196   1.410       .  A
C3191      C3200   1.403       .  A
N3192      O3207   1.262       .  A
N3192      O3208   1.261       .  A
N3194      O3205   1.262       .  A
N3194      O3206   1.262       .  A
C3196      C3197   1.404       .  A
C3196      N3201   1.428       .  S
C3197      C3198   1.404       .  A
C3197      H3202   1.084       .  S
C3198      C3199   1.412       .  A
C3199      C3200   1.406       .  A
C3199      N3203   1.428       .  S
C3200      H3204   1.084       .  S
N3201      O3211   1.262       .  A
N3201      O3212   1.261       .  A
N3203      O3209   1.262       .  A
N3203      O3210   1.262       .  A
C3213      C3214   1.403       .  A
C3213      C3218   1.400       .  A
C3213      H3223   1.083       .  S
C3214      C3219   1.490       .  S
C3214      C3215   1.416       .  A
C3215      C3216   1.402       .  A
C3215      N3220   1.430       .  S
C3216      C3217   1.400       .  A
C3216      H3221   1.084       .  S
C3217      C3218   1.409       .  A
C3218      N3222   1.428       .  S
C3219      C3224   1.407       .  A
C3219      C3228   1.396       .  A
N3220      O3235   1.262       .  A
N3220      O3236   1.261       .  A
N3222      O3233   1.262       .  A
N3222      O3234   1.262       .  A
C3224      C3225   1.398       .  A
C3224      N3229   1.429       .  S
C3225      C3226   1.416       .  A
C3225      H3230   1.083       .  S
C3226      C3227   1.442       .  A
C3227      C3228   1.402       .  A
C3227      N3231   1.436       .  S
C3228      H3232   1.083       .  S
N3229      O3239   1.262       .  A
N3229      O3240   1.262       .  A
N3231      O3237   1.260       .  A
N3231      O3238   1.262       .  A
C3241      C3242   1.398       .  A
C3241      C3246   1.402       .  A
C3241      H3251   1.081       .  S
C3242      C3247   1.503       .  S
C3242      C3243   1.411       .  A
C3243      C3244   1.406       .  A
C3243      N3248   1.429       .  S
C3244      C3245   1.421       .  A
C3244      H3249   1.080       .  S
C3245      C3246   1.431       .  A
C3246      N3250   1.426       .  S
C3247      C3252   1.422       .  A
C3247      C3256   1.409       .  A
N3248      O3263   1.262       .  A
N3248      O3264   1.262       .  A
N3250      O3261   1.262       .  A
N3250      O3262   1.263       .  A
C3252      C3253   1.403       .  A
C3252      N3257   1.429       .  S
C3253      C3254   1.397       .  A
C3253      H3258   1.084       .  S
C3254      C3255   1.405       .  A
C3255      C3256   1.401       .  A
C3255      N3259   1.429       .  S
C3256      H3260   1.082       .  S
N3257      O3267   1.262       .  A
N3257      O3268   1.262       .  A
N3259      O3265   1.262       .  A
N3259      O3266   1.262       .  A
C3269      C3270   1.401       .  A
C3269      C3274   1.403       .  A
C3269      H3279   1.079       .  S
C3270      C3275   1.519       .  S
C3270      C3271   1.421       .  A
C3271      C3272   1.405       .  A
C3271      N3276   1.430       .  S
C3272      C3273   1.412       .  A
C3272      H3277   1.073       .  S
C3273      C3274   1.436       .  A
C3274      N3278   1.429       .  S
C3275      C3280   1.427       .  A
C3275      C3284   1.409       .  A
N3276      O3291   1.262       .  A
N3276      O3292   1.262       .  A
N3278      O3289   1.261       .  A
N3278      O3290   1.262       .  A
C3280      C3281   1.403       .  A
C3280      N3285   1.429       .  S
C3281      C3282   1.401       .  A
C3281      H3286   1.084       .  S
C3282      C3283   1.416       .  A
C3283      C3284   1.403       .  A
C3283      N3287   1.430       .  S
C3284      H3288   1.079       .  S
N3285      O3295   1.262       .  A
N3285      O3296   1.262       .  A
N3287      O3293   1.262       .  A
N3287      O3294   1.262       .  A
C3297      C3298   1.396       .  A
C3297      C3302   1.400       .  A
C3297      H3307   1.082       .  S
C3298      C3303   1.502       .  S
C3298      C3299   1.412       .  A
C3299      C3300   1.404       .  A
C3299      N3304   1.428       .  S
C3300      C3301   1.418       .  A
C3300      H3305   1.079       .  S
C3301      C3302   1.433       .  A
C3302      N3306   1.425       .  S
C3303      C3308   1.415       .  A
C3303      C3312   1.401       .  A
N3304      O3319   1.262       .  A
N3304      O3320   1.261       .  A
N3306      O3317   1.263       .  A
N3306      O3318   1.262       .  A
C3308      C3309   1.399       .  A
C3308      N3313   1.430       .  S
C3309      C3310   1.408       .  A
C3309      H3314   1.078       .  S
C3310      C3311   1.431       .  A
C3311      C3312   1.408       .  A
C3311      N3315   1.431       .  S
C3312      H3316   1.082       .  S
N3313      O3323   1.262       .  A
N3313      O3324   1.262       .  A
N3315      O3321   1.262       .  A
N3315      O3322   1.263       .  A
C3325      C3326   1.402       .  A
C3325      C3330   1.398       .  A
C3325      H3335   1.078       .  S
C3326      C3331   1.507       .  S
C3326      C3327   1.417       .  A
C3327      C3328   1.401       .  A
C3327      N3332   1.430       .  S
C3328      C3329   1.413       .  A
C3328      H3333   1.081       .  S
C3329      C3330   1.429       .  A
C3330      N3334   1.432       .  S
C3331      C3336   1.423       .  A
C3331      C3340   1.410       .  A
N3332      O3347   1.262       .  A
N3332      O3348   1.262       .  A
N3334      O3345   1.262       .  A
N3334      O3346   1.262       .  A
C3336      C3337   1.397       .  A
C3336      N3341   1.430       .  S
C3337      C3338   1.400       .  A
C3337      H3342   1.084       .  S
C3338      C3339   1.412       .  A
C3339      C3340   1.403       .  A
C3339      N3343   1.430       .  S
C3340      H3344   1.080       .  S
N3341      O3351   1.263       .  A
N3341      O3352   1.262       .  A
N3343      O3349   1.262       .  A
N3343      O3350   1.262       .  A
C3353      C3354   1.395       .  A
C3353      C3358   1.403       .  A
C3353      H3363   1.084       .  S
C3354      C3359   1.479       .  S
C3354      C3355   1.401       .  A
C3355      C3356   1.395       .  A
C3355      N3360   1.428       .  S
C3356      C3357   1.417       .  A
C3356      H3361   1.076       .  S
C3357      C3358   1.439       .  A
C3358      N3362   1.437       .  S
C3359      C3364   1.410       .  A
C3359      C3368   1.403       .  A
N3360      O3375   1.262       .  A
N3360      O3376   1.262       .  A
N3362      O3373   1.263       .  A
N3362      O3374   1.261       .  A
C3364      C3365   1.396       .  A
C3364      N3369   1.429       .  S
C3365      C3366   1.400       .  A
C3365      H3370   1.084       .  S
C3366      C3367   1.411       .  A
C3367      C3368   1.403       .  A
C3367      N3371   1.429       .  S
C3368      H3372   1.084       .  S
N3369      O3379   1.262       .  A
N3369      O3380   1.262       .  A
N3371      O3377   1.262       .  A
N3371      O3378   1.262       .  A
C3381      C3382   1.401       .  A
C3381      C3386   1.399       .  A
C3381      H3391   1.083       .  S
C3382      C3387   1.489       .  S
C3382      C3383   1.416       .  A
C3383      C3384   1.403       .  A
C3383      N3388   1.429       .  S
C3384      C3385   1.402       .  A
C3384      H3389   1.084       .  S
C3385      C3386   1.411       .  A
C3386      N3390   1.428       .  S
C3387      C3392   1.410       .  A
C3387      C3396   1.395       .  A
N3388      O3403   1.262       .  A
N3388      O3404   1.262       .  A
N3390      O3401   1.262       .  A
N3390      O3402   1.262       .  A
C3392      C3393   1.404       .  A
C3392      N3397   1.429       .  S
C3393      C3394   1.412       .  A
C3393      H3398   1.078       .  S
C3394      C3395   1.434       .  A
C3395      C3396   1.399       .  A
C3395      N3399   1.432       .  S
C3396      H3400   1.084       .  S
N3397      O3407   1.262       .  A
N3397      O3408   1.262       .  A
N3399      O3405   1.262       .  A
N3399      O3406   1.262       .  A
C3409      C3410   1.408       .  A
C3409      C3414   1.405       .  A
C3409      H3419   1.080       .  S
C3410      C3415   1.502       .  S
C3410      C3411   1.421       .  A
C3411      C3412   1.393       .  A
C3411      N3416   1.430       .  S
C3412      C3413   1.398       .  A
C3412      H3417   1.084       .  S
C3413      C3414   1.415       .  A
C3414      N3418   1.430       .  S
C3415      C3420   1.413       .  A
C3415      C3424   1.395       .  A
N3416      O3431   1.262       .  A
N3416      O3432   1.262       .  A
N3418      O3429   1.262       .  A
N3418      O3430   1.262       .  A
C3420      C3421   1.403       .  A
C3420      N3425   1.429       .  S
C3421      C3422   1.417       .  A
C3421      H3426   1.074       .  S
C3422      C3423   1.438       .  A
C3423      C3424   1.396       .  A
C3423      N3427   1.430       .  S
C3424      H3428   1.082       .  S
N3425      O3435   1.263       .  A
N3425      O3436   1.261       .  A
N3427      O3433   1.262       .  A
N3427      O3434   1.261       .  A
C3437      C3438   1.404       .  A
C3437      C3442   1.400       .  A
C3437      H3447   1.084       .  S
C3438      C3443   1.480       .  S
C3438      C3439   1.412       .  A
C3439      C3440   1.398       .  A
C3439      N3444   1.428       .  S
C3440      C3441   1.399       .  A
C3440      H3445   1.084       .  S
C3441      C3442   1.406       .  A
C3442      N3446   1.429       .  S
C3443      C3448   1.399       .  A
C3443      C3452   1.392       .  A
N3444      O3459   1.262       .  A
N3444      O3460   1.262       .  A
N3446      O3457   1.261       .  A
N3446      O3458   1.262       .  A
C3448      C3449   1.397       .  A
C3448      N3453   1.429       .  S
C3449      C3450   1.422       .  A
C3449      H3454   1.077       .  S
C3450      C3451   1.435       .  A
C3451      C3452   1.402       .  A
C3451      N3455   1.426       .  S
C3452      H3456   1.084       .  S
N3453      O3463   1.262       .  A
N3453      O3464   1.262       .  A
N3455      O3461   1.263       .  A
N3455      O3462   1.263       .  A
C3465      C3466   1.415       .  A
C3465      C3470   1.405       .  A
C3465      H3475   1.075       .  S
C3466      C3471   1.525       .  S
C3466      C3467   1.428       .  A
C3467      C3468   1.399       .  A
C3467      N3472   1.430       .  S
C3468      C3469   1.399       .  A
C3468      H3473   1.084       .  S
C3469      C3470   1.411       .  A
C3470      N3474   1.432       .  S
C3471      C3476   1.422       .  A
C3471      C3480   1.406       .  A
N3472      O3487   1.263       .  A
N3472      O3488   1.262       .  A
N3474      O3485   1.262       .  A
N3474      O3486   1.262       .  A
C3476      C3477   1.403       .  A
C3476      N3481   1.429       .  S
C3477      C3478   1.415       .  A
C3477      H3482   1.084       .  S
C3478      C3479   1.436       .  A
C3479      C3480   1.403       .  A
C3479      N3483   1.433       .  S
C3480      H3484   1.076       .  S
N3481      O3491   1.263       .  A
N3481      O3492   1.262       .  A
N3483      O3489   1.262       .  A
N3483      O3490   1.261       .  A
C3493      C3494   1.406       .  A
C3493      C3498   1.409       .  A
C3493      H3503   1.080       .  S
C3494      C3499   1.511       .  S
C3494      C3495   1.414       .  A
C3495      C3496   1.400       .  A
C3495      N3500   1.430       .  S
C3496      C3497   1.419       .  A
C3496      H3501   1.083       .  S
C3497      C3498   1.433       .  A
C3498      N3502   1.433       .  S
C3499      C3504   1.420       .  A
C3499      C3508   1.408       .  A
N3500      O3515   1.262       .  A
N3500      O3516   1.262       .  A
N3502      O3513   1.262       .  A
N3502      O3514   1.261       .  A
C3504      C3505   1.403       .  A
C3504      N3509   1.430       .  S
C3505      C3506   1.405       .  A
C3505      H3510   1.083       .  S
C3506      C3507   1.417       .  A
C3507      C3508   1.405       .  A
C3507      N3511   1.431       .  S
C3508      H3512   1.080       .  S
N3509      O3519   1.262       .  A
N3509      O3520   1.262       .  A
N3511      O3517   1.262       .  A
N3511      O3518   1.262       .  A
C3521      C3522   1.398       .  A
C3521      C3526   1.408       .  A
C3521      H3531   1.084       .  S
C3522      C3527   1.480       .  S
C3522      C3523   1.398       .  A
C3523      C3524   1.395       .  A
C3523      N3528   1.429       .  S
C3524      C3525   1.420       .  A
C3524      H3529   1.084       .  S
C3525      C3526   1.438       .  A
C3526      N3530   1.434       .  S
C3527      C3532   1.408       .  A
C3527      C3536   1.402       .  A
N3528      O3543   1.262       .  A
N3528      O3544   1.262       .  A
N3530      O3541   1.261       .  A
N3530      O3542   1.260       .  A
C3532      C3533   1.403       .  A
C3532      N3537   1.429       .  S
C3533      C3534   1.404       .  A
C3533      H3538   1.084       .  S
C3534      C3535   1.410       .  A
C3535      C3536   1.402       .  A
C3535      N3539   1.428       .  S
C3536      H3540   1.084       .  S
N3537      O3547   1.262       .  A
N3537      O3548   1.261       .  A
N3539      O3545   1.262       .  A
N3539      O3546   1.262       .  A
C3549      C3550   1.401       .  A
C3549      C3554   1.400       .  A
C3549      H3559   1.082       .  S
C3550      C3555   1.495       .  S
C3550      C3551   1.411       .  A
C3551      C3552   1.399       .  A
C3551      N3556   1.430       .  S
C3552      C3553   1.418       .  A
C3552      H3557   1.076       .  S
C3553      C3554   1.429       .  A
C3554      N3558   1.431       .  S
C3555      C3560   1.417       .  A
C3555      C3564   1.407       .  A
N3556      O3571   1.262       .  A
N3556      O3572   1.262       .  A
N3558      O3569   1.261       .  A
N3558      O3570   1.262       .  A
C3560      C3561   1.399       .  A
C3560      N3565   1.430       .  S
C3561      C3562   1.400       .  A
C3561      H3566   1.084       .  S
C3562      C3563   1.409       .  A
C3563      C3564   1.402       .  A
C3563      N3567   1.430       .  S
C3564      H3568   1.081       .  S
N3565      O3575   1.262       .  A
N3565      O3576   1.262       .  A
N3567      O3573   1.262       .  A
N3567      O3574   1.262       .  A
C3577      C3578   1.406       .  A
C3577      C3582   1.407       .  A
C3577      H3587   1.083       .  S
C3578      C3583   1.493       .  S
C3578      C3579   1.414       .  A
C3579      C3580   1.399       .  A
C3579      N3584   1.429       .  S
C3580      C3581   1.400       .  A
C3580      H3585   1.084       .  S
C3581      C3582   1.412       .  A
C3582      N3586   1.429       .  S
C3583      C3588   1.405       .  A
C3583      C3592   1.396       .  A
N3584      O3599   1.262       .  A
N3584      O3600   1.261       .  A
N3586      O3597   1.262       .  A
N3586      O3598   1.262       .  A
C3588      C3589   1.403       .  A
C3588      N3593   1.429       .  S
C3589      C3590   1.421       .  A
C3589      H3594   1.083       .  S
C3590      C3591   1.440       .  A
C3591      C3592   1.403       .  A
C3591      N3595   1.430       .  S
C3592      H3596   1.084       .  S
N3593      O3603   1.262       .  A
N3593      O3604   1.262       .  A
N3595      O3601   1.260       .  A
N3595      O3602   1.262       .  A
C3605      C3606   1.412       .  A
C3605      C3610   1.405       .  A
C3605      H3615   1.079       .  S
C3606      C3611   1.515       .  S
C3606      C3607   1.423       .  A
C3607      C3608   1.399       .  A
C3607      N3612   1.429       .  S
C3608      C3609   1.401       .  A
C3608      H3613   1.084       .  S
C3609      C3610   1.413       .  A
C3610      N3614   1.431       .  S
C3611      C3616   1.409       .  A
C3611      C3620   1.397       .  A
N3612      O3627   1.263       .  A
N3612      O3628   1.261       .  A
N3614      O3625   1.262       .  A
N3614      O3626   1.262       .  A
C3616      C3617   1.402       .  A
C3616      N3621   1.431       .  S
C3617      C3618   1.432       .  A
C3617      H3622   1.073       .  S
C3618      C3619   1.447       .  A
C3619      C3620   1.407       .  A
C3619      N3623   1.424       .  S
C3620      H3624   1.079       .  S
N3621      O3631   1.263       .  A
N3621      O3632   1.262       .  A
N3623      O3629   1.262       .  A
N3623      O3630   1.262       .  A
C3633      C3634   1.409       .  A
C3633      C3638   1.404       .  A
C3633      H3643   1.083       .  S
C3634      C3639   1.493       .  S
C3634      C3635   1.415       .  A
C3635      C3636   1.399       .  A
C3635      N3640   1.428       .  S
C3636      C3637   1.398       .  A
C3636      H3641   1.084       .  S
C3637      C3638   1.407       .  A
C3638      N3642   1.429       .  S
C3639      C3644   1.405       .  A
C3639      C3648   1.399       .  A
N3640      O3655   1.262       .  A
N3640      O3656   1.261       .  A
N3642      O3653   1.262       .  A
N3642      O3654   1.262       .  A
C3644      C3645   1.396       .  A
C3644      N3649   1.429       .  S
C3645      C3646   1.415       .  A
C3645      H3650   1.075       .  S
C3646      C3647   1.439       .  A
C3647      C3648   1.406       .  A
C3647      N3651   1.433       .  S
C3648      H3652   1.083       .  S
N3649      O3659   1.262       .  A
N3649      O3660   1.262       .  A
N3651      O3657   1.262       .  A
N3651      O3658   1.262       .  A
C3661      C3662   1.404       .  A
C3661      C3666   1.402       .  A
C3661      H3671   1.084       .  S
C3662      C3667   1.483       .  S
C3662      C3663   1.411       .  A
C3663      C3664   1.402       .  A
C3663      N3668   1.427       .  S
C3664      C3665   1.400       .  A
C3664      H3669   1.084       .  S
C3665      C3666   1.407       .  A
C3666      N3670   1.429       .  S
C3667      C3672   1.399       .  A
C3667      C3676   1.394       .  A
N3668      O3683   1.262       .  A
N3668      O3684   1.262       .  A
N3670      O3681   1.262       .  A
N3670      O3682   1.262       .  A
C3672      C3673   1.399       .  A
C3672      N3677   1.428       .  S
C3673      C3674   1.424       .  A
C3673      H3678   1.079       .  S
C3674      C3675   1.432       .  A
C3675      C3676   1.406       .  A
C3675      N3679   1.424       .  S
C3676      H3680   1.084       .  S
N3677      O3687   1.262       .  A
N3677      O3688   1.262       .  A
N3679      O3685   1.262       .  A
N3679      O3686   1.263       .  A
C3689      C3690   1.404       .  A
C3689      C3694   1.401       .  A
C3689      H3699   1.083       .  S
C3690      C3695   1.489       .  S
C3690      C3691   1.414       .  A
C3691      C3692   1.402       .  A
C3691      N3696   1.429       .  S
C3692      C3693   1.401       .  A
C3692      H3697   1.084       .  S
C3693      C3694   1.409       .  A
C3694      N3698   1.428       .  S
C3695      C3700   1.404       .  A
C3695      C3704   1.396       .  A
N3696      O3711   1.262       .  A
N3696      O3712   1.262       .  A
N3698      O3709   1.262       .  A
N3698      O3710   1.262       .  A
C3700      C3701   1.401       .  A
C3700      N3705   1.429       .  S
C3701      C3702   1.422       .  A
C3701      H3706   1.083       .  S
C3702      C3703   1.439       .  A
C3703      C3704   1.404       .  A
C3703      N3707   1.431       .  S
C3704      H3708   1.084       .  S
N3705      O3715   1.262       .  A
N3705      O3716   1.262       .  A
N3707      O3713   1.261       .  A
N3707      O3714   1.262       .  A
C3717      C3718   1.398       .  A
C3717      C3722   1.400       .  A
C3717      H3727   1.084       .  S
C3718      C3723   1.491       .  S
C3718      C3719   1.408       .  A
C3719      C3720   1.401       .  A
C3719      N3724   1.429       .  S
C3720      C3721   1.417       .  A
C3720      H3725   1.076       .  S
C3721      C3722   1.434       .  A
C3722      N3726   1.431       .  S
C3723      C3728   1.415       .  A
C3723      C3732   1.408       .  A
N3724      O3739   1.262       .  A
N3724      O3740   1.262       .  A
N3726      O3737   1.262       .  A
N3726      O3738   1.262       .  A
C3728      C3729   1.400       .  A
C3728      N3733   1.429       .  S
C3729      C3730   1.400       .  A
C3729      H3734   1.084       .  S
C3730      C3731   1.406       .  A
C3731      C3732   1.399       .  A
C3731      N3735   1.429       .  S
C3732      H3736   1.084       .  S
N3733      O3743   1.262       .  A
N3733      O3744   1.262       .  A
N3735      O3741   1.262       .  A
N3735      O3742   1.261       .  A
C3745      C3746   1.402       .  A
C3745      C3750   1.404       .  A
C3745      H3755   1.079       .  S
C3746      C3751   1.501       .  S
C3746      C3747   1.413       .  A
C3747      C3748   1.397       .  A
C3747      N3752   1.431       .  S
C3748      C3749   1.412       .  A
C3748      H3753   1.079       .  S
C3749      C3750   1.433       .  A
C3750      N3754   1.434       .  S
C3751      C3756   1.420       .  A
C3751      C3760   1.405       .  A
N3752      O3767   1.262       .  A
N3752      O3768   1.262       .  A
N3754      O3765   1.262       .  A
N3754      O3766   1.262       .  A
C3756      C3757   1.403       .  A
C3756      N3761   1.429       .  S
C3757      C3758   1.404       .  A
C3757      H3762   1.083       .  S
C3758      C3759   1.415       .  A
C3759      C3760   1.398       .  A
C3759      N3763   1.430       .  S
C3760      H3764   1.081       .  S
N3761      O3771   1.262       .  A
N3761      O3772   1.262       .  A
N3763      O3769   1.262       .  A
N3763      O3770   1.262       .  A
C3773      C3774   1.398       .  A
C3773      C3778   1.403       .  A
C3773      H3783   1.082       .  S
C3774      C3779   1.500       .  S
C3774      C3775   1.409       .  A
C3775      C3776   1.404       .  A
C3775      N3780   1.429       .  S
C3776      C3777   1.417       .  A
C3776      H3781   1.078       .  S
C3777      C3778   1.439       .  A
C3778      N3782   1.432       .  S
C3779      C3784   1.418       .  A
C3779      C3788   1.407       .  A
N3780      O3795   1.262       .  A
N3780      O3796   1.262       .  A
N3782      O3793   1.262       .  A
N3782      O3794   1.262       .  A
C3784      C3785   1.402       .  A
C3784      N3789   1.430       .  S
C3785      C3786   1.400       .  A
C3785      H3790   1.084       .  S
C3786      C3787   1.411       .  A
C3787      C3788   1.406       .  A
C3787      N3791   1.428       .  S
C3788      H3792   1.082       .  S
N3789      O3799   1.262       .  A
N3789      O3800   1.261       .  A
N3791      O3797   1.262       .  A
N3791      O3798   1.262       .  A
C3801      C3802   1.400       .  A
C3801      C3806   1.405       .  A
C3801      H3811   1.083       .  S
C3802      C3807   1.487       .  S
C3802      C3803   1.404       .  A
C3803      C3804   1.396       .  A
C3803      N3808   1.430       .  S
C3804      C3805   1.419       .  A
C3804      H3809   1.079       .  S
C3805      C3806   1.432       .  A
C3806      N3810   1.432       .  S
C3807      C3812   1.413       .  A
C3807      C3816   1.404       .  A
N3808      O3823   1.262       .  A
N3808      O3824   1.262       .  A
N3810      O3821   1.262       .  A
N3810      O3822   1.262       .  A
C3812      C3813   1.401       .  A
C3812      N3817   1.428       .  S
C3813      C3814   1.401       .  A
C3813      H3818   1.084       .  S
C3814      C3815   1.409       .  A
C3815      C3816   1.399       .  A
C3815      N3819   1.429       .  S
C3816      H3820   1.083       .  S
N3817      O3827   1.262       .  A
N3817      O3828   1.262       .  A
N3819      O3825   1.262       .  A
N3819      O3826   1.262       .  A
C3829      C3830   1.400       .  A
C3829      C3834   1.408       .  A
C3829      H3839   1.083       .  S
C3830      C3835   1.491       .  S
C3830      C3831   1.404       .  A
C3831      C3832   1.395       .  A
C3831      N3836   1.430       .  S
C3832      C3833   1.420       .  A
C3832      H3837   1.083       .  S
C3833      C3834   1.438       .  A
C3834      N3838   1.434       .  S
C3835      C3840   1.412       .  A
C3835      C3844   1.405       .  A
N3836      O3851   1.262       .  A
N3836      O3852   1.262       .  A
N3838      O3849   1.260       .  A
N3838      O3850   1.261       .  A
C3840      C3841   1.401       .  A
C3840      N3845   1.429       .  S
C3841      C3842   1.403       .  A
C3841      H3846   1.084       .  S
C3842      C3843   1.412       .  A
C3843      C3844   1.404       .  A
C3843      N3847   1.429       .  S
C3844      H3848   1.083       .  S
N3845      O3855   1.262       .  A
N3845      O3856   1.262       .  A
N3847      O3853   1.262       .  A
N3847      O3854   1.262       .  A
C3857      C3858   1.400       .  A
C3857      C3862   1.406       .  A
C3857      H3867   1.083       .  S
C3858      C3863   1.488       .  S
C3858      C3859   1.404       .  A
C3859      C3860   1.395       .  A
C3859      N3864   1.430       .  S
C3860      C3861   1.416       .  A
C3860      H3865   1.077       .  S
C3861      C3862   1.433       .  A
C3862      N3866   1.433       .  S
C3863      C3868   1.412       .  A
C3863      C3872   1.404       .  A
N3864      O3879   1.262       .  A
N3864      O3880   1.262       .  A
N3866      O3877   1.262       .  A
N3866      O3878   1.261       .  A
C3868      C3869   1.402       .  A
C3868      N3873   1.428       .  S
C3869      C3870   1.403       .  A
C3869      H3874   1.084       .  S
C3870      C3871   1.409       .  A
C3871      C3872   1.400       .  A
C3871      N3875   1.429       .  S
C3872      H3876   1.084       .  S
N3873      O3883   1.262       .  A
N3873      O3884   1.262       .  A
N3875      O3881   1.262       .  A
N3875      O3882   1.262       .  A
C3885      C3886   1.397       .  A
C3885      C3890   1.406       .  A
C3885      H3895   1.084       .  S
C3886      C3891   1.491       .  S
C3886      C3887   1.405       .  A
C3887      C3888   1.401       .  A
C3887      N3892   1.428       .  S
C3888      C3889   1.420       .  A
C3888      H3893   1.083       .  S
C3889      C3890   1.441       .  A
C3890      N3894   1.433       .  S
C3891      C3896   1.413       .  A
C3891      C3900   1.406       .  A
N3892      O3907   1.262       .  A
N3892      O3908   1.262       .  A
N3894      O3905   1.262       .  A
N3894      O3906   1.260       .  A
C3896      C3897   1.404       .  A
C3896      N3901   1.429       .  S
C3897      C3898   1.404       .  A
C3897      H3902   1.084       .  S
C3898      C3899   1.409       .  A
C3899      C3900   1.402       .  A
C3899      N3903   1.428       .  S
C3900      H3904   1.084       .  S
N3901      O3911   1.262       .  A
N3901      O3912   1.262       .  A
N3903      O3909   1.262       .  A
N3903      O3910   1.262       .  A
C3913      C3914   1.401       .  A
C3913      C3918   1.399       .  A
C3913      H3923   1.084       .  S
C3914      C3919   1.470       .  S
C3914      C3915   1.406       .  A
C3915      C3916   1.397       .  A
C3915      N3920   1.429       .  S
C3916      C3917   1.401       .  A
C3916      H3921   1.084       .  S
C3917      C3918   1.408       .  A
C3918      N3922   1.428       .  S
C3919      C3924   1.397       .  A
C3919      C3928   1.392       .  A
N3920      O3935   1.262       .  A
N3920      O3936   1.262       .  A
N3922      O3933   1.262       .  A
N3922      O3934   1.262       .  A
C3924      C3925   1.395       .  A
C3924      N3929   1.428       .  S
C3925      C3926   1.419       .  A
C3925      H3930   1.077       .  S
C3926      C3927   1.433       .  A
C3927      C3928   1.399       .  A
C3927      N3931   1.429       .  S
C3928      H3932   1.084       .  S
N3929      O3939   1.262       .  A
N3929      O3940   1.261       .  A
N3931      O3937   1.262       .  A
N3931      O3938   1.262       .  A
C3941      C3942   1.402       .  A
C3941      C3946   1.403       .  A
C3941      H3951   1.080       .  S
C3942      C3947   1.503       .  S
C3942      C3943   1.415       .  A
C3943      C3944   1.394       .  A
C3943      N3948   1.431       .  S
C3944      C3945   1.412       .  A
C3944      H3949   1.084       .  S
C3945      C3946   1.437       .  A
C3946      N3950   1.435       .  S
C3947      C3952   1.422       .  A
C3947      C3956   1.406       .  A
N3948      O3963   1.263       .  A
N3948      O3964   1.262       .  A
N3950      O3961   1.261       .  A
N3950      O3962   1.260       .  A
C3952      C3953   1.401       .  A
C3952      N3957   1.430       .  S
C3953      C3954   1.401       .  A
C3953      H3958   1.083       .  S
C3954      C3955   1.413       .  A
C3955      C3956   1.395       .  A
C3955      N3959   1.431       .  S
C3956      H3960   1.079       .  S
N3957      O3967   1.262       .  A
N3957      O3968   1.262       .  A
N3959      O3965   1.262       .  A
N3959      O3966   1.262       .  A
C3969      C3970   1.404       .  A
C3969      C3974   1.400       .  A
C3969      H3979   1.084       .  S
C3970      C3975   1.490       .  S
C3970      C3971   1.414       .  A
C3971      C3972   1.404       .  A
C3971      N3976   1.428       .  S
C3972      C3973   1.404       .  A
C3972      H3977   1.084       .  S
C3973      C3974   1.413       .  A
C3974      N3978   1.430       .  S
C3975      C3980   1.405       .  A
C3975      C3984   1.396       .  A
N3976      O3991   1.262       .  A
N3976      O3992   1.262       .  A
N3978      O3989   1.261       .  A
N3978      O3990   1.262       .  A
C3980      C3981   1.402       .  A
C3980      N3985   1.428       .  S
C3981      C3982   1.419       .  A
C3981      H3986   1.084       .  S
C3982      C3983   1.442       .  A
C3983      C3984   1.401       .  A
C3983      N3987   1.432       .  S
C3984      H3988   1.085       .  S
N3985      O3995   1.262       .  A
N3985      O3996   1.262       .  A
N3987      O3993   1.262       .  A
N3987      O3994   1.261       .  A
C3997      C3998   1.398       .  A
C3997      C4002   1.399       .  A
C3997      H4007   1.081       .  S
C3998      C4003   1.506       .  S
C3998      C3999   1.416       .  A
C3999      C4000   1.401       .  A
C3999      N4004   1.429       .  S
C4000      C4001   1.413       .  A
C4000      H4005   1.075       .  S
C4001      C4002   1.435       .  A
C4002      N4006   1.429       .  S
C4003      C4008   1.422       .  A
C4003      C4012   1.408       .  A
N4004      O4019   1.262       .  A
N4004      O4020   1.262       .  A
N4006      O4017   1.262       .  A
N4006      O4018   1.262       .  A
C4008      C4009   1.397       .  A
C4008      N4013   1.429       .  S
C4009      C4010   1.401       .  A
C4009      H4014   1.084       .  S
C4010      C4011   1.415       .  A
C4011      C4012   1.402       .  A
C4011      N4015   1.430       .  S
C4012      H4016   1.080       .  S
N4013      O4023   1.262       .  A
N4013      O4024   1.261       .  A
N4015      O4021   1.262       .  A
N4015      O4022   1.262       .  A
C4025      C4026   1.398       .  A
C4025      C4030   1.402       .  A
C4025      H4035   1.081       .  S
C4026      C4031   1.507       .  S
C4026      C4027   1.412       .  A
C4027      C4028   1.406       .  A
C4027      N4032   1.430       .  S
C4028      C4029   1.421       .  A
C4028      H4033   1.079       .  S
C4029      C4030   1.436       .  A
C4030      N4034   1.430       .  S
C4031      C4036   1.419       .  A
C4031      C4040   1.408       .  A
N4032      O4047   1.262       .  A
N4032      O4048   1.262       .  A
N4034      O4045   1.262       .  A
N4034      O4046   1.262       .  A
C4036      C4037   1.401       .  A
C4036      N4041   1.430       .  S
C4037      C4038   1.405       .  A
C4037      H4042   1.084       .  S
C4038      C4039   1.415       .  A
C4039      C4040   1.406       .  A
C4039      N4043   1.429       .  S
C4040      H4044   1.081       .  S
N4041      O4051   1.262       .  A
N4041      O4052   1.262       .  A
N4043      O4049   1.262       .  A
N4043      O4050   1.262       .  A
C4053      C4054   1.395       .  A
C4053      C4058   1.400       .  A
C4053      H4063   1.084       .  S
C4054      C4059   1.480       .  S
C4054      C4055   1.403       .  A
C4055      C4056   1.397       .  A
C4055      N4060   1.429       .  S
C4056      C4057   1.416       .  A
C4056      H4061   1.079       .  S
C4057      C4058   1.435       .  A
C4058      N4062   1.432       .  S
C4059      C4064   1.411       .  A
C4059      C4068   1.401       .  A
N4060      O4075   1.262       .  A
N4060      O4076   1.262       .  A
N4062      O4073   1.262       .  A
N4062      O4074   1.262       .  A
C4064      C4065   1.401       .  A
C4064      N4069   1.429       .  S
C4065      C4066   1.403       .  A
C4065      H4070   1.084       .  S
C4066      C4067   1.410       .  A
C4067      C4068   1.398       .  A
C4067      N4071   1.428       .  S
C4068      H4072   1.084       .  S
N4069      O4079   1.262       .  A
N4069      O4080   1.262       .  A
N4071      O4077   1.262       .  A
N4071      O4078   1.262       .  A
C4081      C4082   1.401       .  A
C4081      C4086   1.398       .  A
C4081      H4091   1.084       .  S
C4082      C4087   1.479       .  S
C4082      C4083   1.410       .  A
C4083      C4084   1.403       .  A
C4083      N4088   1.429       .  S
C4084      C4085   1.403       .  A
C4084      H4089   1.084       .  S
C4085      C4086   1.407       .  A
C4086      N4090   1.427       .  S
C4087      C4092   1.400       .  A
C4087      C4096   1.395       .  A
N4088      O4103   1.262       .  A
N4088      O4104   1.262       .  A
N4090      O4101   1.262       .  A
N4090      O4102   1.262       .  A
C4092      C4093   1.396       .  A
C4092      N4097   1.429       .  S
C4093      C4094   1.419       .  A
C4093      H4098   1.079       .  S
C4094      C4095   1.435       .  A
C4095      C4096   1.405       .  A
C4095      N4099   1.432       .  S
C4096      H4100   1.084       .  S
N4097      O4107   1.262       .  A
N4097      O4108   1.262       .  A
N4099      O4105   1.262       .  A
N4099      O4106   1.262       .  A
C4109      C4110   1.406       .  A
C4109      C4114   1.401       .  A
C4109      H4119   1.082       .  S
C4110      C4115   1.499       .  S
C4110      C4111   1.420       .  A
C4111      C4112   1.402       .  A
C4111      N4116   1.430       .  S
C4112      C4113   1.401       .  A
C4112      H4117   1.084       .  S
C4113      C4114   1.408       .  A
C4114      N4118   1.428       .  S
C4115      C4120   1.413       .  A
C4115      C4124   1.397       .  A
N4116      O4131   1.262       .  A
N4116      O4132   1.262       .  A
N4118      O4129   1.262       .  A
N4118      O4130   1.262       .  A
C4120      C4121   1.404       .  A
C4120      N4125   1.429       .  S
C4121      C4122   1.414       .  A
C4121      H4126   1.079       .  S
C4122      C4123   1.436       .  A
C4123      C4124   1.399       .  A
C4123      N4127   1.432       .  S
C4124      H4128   1.082       .  S
N4125      O4135   1.262       .  A
N4125      O4136   1.262       .  A
N4127      O4133   1.262       .  A
N4127      O4134   1.262       .  A
C4137      C4138   1.396       .  A
C4137      C4142   1.406       .  A
C4137      H4147   1.084       .  S
C4138      C4143   1.477       .  S
C4138      C4139   1.398       .  A
C4139      C4140   1.395       .  A
C4139      N4144   1.429       .  S
C4140      C4141   1.418       .  A
C4140      H4145   1.078       .  S
C4141      C4142   1.433       .  A
C4142      N4146   1.431       .  S
C4143      C4148   1.409       .  A
C4143      C4152   1.403       .  A
N4144      O4159   1.262       .  A
N4144      O4160   1.262       .  A
N4146      O4157   1.262       .  A
N4146      O4158   1.262       .  A
C4148      C4149   1.400       .  A
C4148      N4153   1.427       .  S
C4149      C4150   1.400       .  A
C4149      H4154   1.084       .  S
C4150      C4151   1.406       .  A
C4151      C4152   1.399       .  A
C4151      N4155   1.429       .  S
C4152      H4156   1.084       .  S
N4153      O4163   1.262       .  A
N4153      O4164   1.262       .  A
N4155      O4161   1.262       .  A
N4155      O4162   1.262       .  A
C4165      C4166   1.398       .  A
C4165      C4170   1.407       .  A
C4165      H4175   1.083       .  S
C4166      C4171   1.490       .  S
C4166      C4167   1.404       .  A
C4167      C4168   1.394       .  A
C4167      N4172   1.430       .  S
C4168      C4169   1.414       .  A
C4168      H4173   1.074       .  S
C4169      C4170   1.439       .  A
C4170      N4174   1.432       .  S
C4171      C4176   1.413       .  A
C4171      C4180   1.404       .  A
N4172      O4187   1.262       .  A
N4172      O4188   1.262       .  A
N4174      O4185   1.262       .  A
N4174      O4186   1.262       .  A
C4176      C4177   1.400       .  A
C4176      N4181   1.428       .  S
C4177      C4178   1.404       .  A
C4177      H4182   1.084       .  S
C4178      C4179   1.411       .  A
C4179      C4180   1.400       .  A
C4179      N4183   1.428       .  S
C4180      H4184   1.083       .  S
N4181      O4191   1.262       .  A
N4181      O4192   1.262       .  A
N4183      O4189   1.262       .  A
N4183      O4190   1.261       .  A
C4193      C4194   1.400       .  A
C4193      C4198   1.402       .  A
C4193      H4203   1.081       .  S
C4194      C4199   1.498       .  S
C4194      C4195   1.409       .  A
C4195      C4196   1.400       .  A
C4195      N4200   1.430       .  S
C4196      C4197   1.416       .  A
C4196      H4201   1.079       .  S
C4197      C4198   1.431       .  A
C4198      N4202   1.431       .  S
C4199      C4204   1.419       .  A
C4199      C4208   1.412       .  A
N4200      O4215   1.262       .  A
N4200      O4216   1.262       .  A
N4202      O4213   1.262       .  A
N4202      O4214   1.262       .  A
C4204      C4205   1.396       .  A
C4204      N4209   1.429       .  S
C4205      C4206   1.395       .  A
C4205      H4210   1.084       .  S
C4206      C4207   1.404       .  A
C4207      C4208   1.403       .  A
C4207      N4211   1.429       .  S
C4208      H4212   1.081       .  S
N4209      O4219   1.262       .  A
N4209      O4220   1.262       .  A
N4211      O4217   1.261       .  A
N4211      O4218   1.262       .  A
C4221      C4222   1.388       .  A
C4221      C4226   1.398       .  A
C4221      H4231   1.085       .  S
C4222      C4227   1.480       .  S
C4222      C4223   1.401       .  A
C4223      C4224   1.403       .  A
C4223      N4228   1.428       .  S
C4224      C4225   1.425       .  A
C4224      H4229   1.078       .  S
C4225      C4226   1.437       .  A
C4226      N4230   1.425       .  S
C4227      C4232   1.412       .  A
C4227      C4236   1.400       .  A
N4228      O4243   1.262       .  A
N4228      O4244   1.262       .  A
N4230      O4241   1.263       .  A
N4230      O4242   1.263       .  A
C4232      C4233   1.402       .  A
C4232      N4237   1.428       .  S
C4233      C4234   1.401       .  A
C4233      H4238   1.084       .  S
C4234      C4235   1.409       .  A
C4235      C4236   1.399       .  A
C4235      N4239   1.428       .  S
C4236      H4240   1.084       .  S
N4237      O4247   1.262       .  A
N4237      O4248   1.262       .  A
N4239      O4245   1.262       .  A
N4239      O4246   1.262       .  A
C4249      C4250   1.400       .  A
C4249      C4254   1.399       .  A
C4249      H4259   1.083       .  S
C4250      C4255   1.494       .  S
C4250      C4251   1.409       .  A
C4251      C4252   1.395       .  A
C4251      N4256   1.430       .  S
C4252      C4253   1.416       .  A
C4252      H4257   1.084       .  S
C4253      C4254   1.436       .  A
C4254      N4258   1.436       .  S
C4255      C4260   1.421       .  A
C4255      C4264   1.411       .  A
N4256      O4271   1.262       .  A
N4256      O4272   1.261       .  A
N4258      O4269   1.261       .  A
N4258      O4270   1.260       .  A
C4260      C4261   1.392       .  A
C4260      N4265   1.430       .  S
C4261      C4262   1.394       .  A
C4261      H4266   1.084       .  S
C4262      C4263   1.403       .  A
C4263      C4264   1.401       .  A
C4263      N4267   1.430       .  S
C4264      H4268   1.080       .  S
N4265      O4275   1.262       .  A
N4265      O4276   1.262       .  A
N4267      O4273   1.262       .  A
N4267      O4274   1.261       .  A
C4277      C4278   1.404       .  A
C4277      C4282   1.400       .  A
C4277      H4287   1.082       .  S
C4278      C4283   1.487       .  S
C4278      C4279   1.416       .  A
C4279      C4280   1.399       .  A
C4279      N4284   1.430       .  S
C4280      C4281   1.401       .  A
C4280      H4285   1.084       .  S
C4281      C4282   1.409       .  A
C4282      N4286   1.428       .  S
C4283      C4288   1.408       .  A
C4283      C4292   1.393       .  A
N4284      O4299   1.262       .  A
N4284      O4300   1.261       .  A
N4286      O4297   1.262       .  A
N4286      O4298   1.262       .  A
C4288      C4289   1.401       .  A
C4288      N4293   1.429       .  S
C4289      C4290   1.416       .  A
C4289      H4294   1.078       .  S
C4290      C4291   1.434       .  A
C4291      C4292   1.396       .  A
C4291      N4295   1.430       .  S
C4292      H4296   1.083       .  S
N4293      O4303   1.262       .  A
N4293      O4304   1.261       .  A
N4295      O4301   1.262       .  A
N4295      O4302   1.261       .  A
C4305      C4306   1.405       .  A
C4305      C4310   1.403       .  A
C4305      H4315   1.084       .  S
C4306      C4311   1.477       .  S
C4306      C4307   1.409       .  A
C4307      C4308   1.394       .  A
C4307      N4312   1.428       .  S
C4308      C4309   1.398       .  A
C4308      H4313   1.084       .  S
C4309      C4310   1.408       .  A
C4310      N4314   1.430       .  S
C4311      C4316   1.400       .  A
C4311      C4320   1.395       .  A
N4312      O4327   1.262       .  A
N4312      O4328   1.262       .  A
N4314      O4325   1.260       .  A
N4314      O4326   1.262       .  A
C4316      C4317   1.395       .  A
C4316      N4321   1.429       .  S
C4317      C4318   1.421       .  A
C4317      H4322   1.083       .  S
C4318      C4319   1.436       .  A
C4319      C4320   1.402       .  A
C4319      N4323   1.429       .  S
C4320      H4324   1.084       .  S
N4321      O4331   1.262       .  A
N4321      O4332   1.262       .  A
N4323      O4329   1.261       .  A
N4323      O4330   1.262       .  A
C4333      C4334   1.393       .  A
C4333      C4338   1.398       .  A
C4333      H4343   1.084       .  S
C4334      C4339   1.484       .  S
C4334      C4335   1.405       .  A
C4335      C4336   1.403       .  A
C4335      N4340   1.429       .  S
C4336      C4337   1.419       .  A
C4336      H4341   1.080       .  S
C4337      C4338   1.432       .  A
C4338      N4342   1.426       .  S
C4339      C4344   1.409       .  A
C4339      C4348   1.404       .  A
N4340      O4355   1.262       .  A
N4340      O4356   1.261       .  A
N4342      O4353   1.263       .  A
N4342      O4354   1.262       .  A
C4344      C4345   1.399       .  A
C4344      N4349   1.429       .  S
C4345      C4346   1.405       .  A
C4345      H4350   1.084       .  S
C4346      C4347   1.415       .  A
C4347      C4348   1.403       .  A
C4347      N4351   1.429       .  S
C4348      H4352   1.084       .  S
N4349      O4359   1.262       .  A
N4349      O4360   1.262       .  A
N4351      O4357   1.262       .  A
N4351      O4358   1.262       .  A
C4361      C4362   1.393       .  A
C4361      C4366   1.400       .  A
C4361      H4371   1.083       .  S
C4362      C4367   1.495       .  S
C4362      C4363   1.407       .  A
C4363      C4364   1.406       .  A
C4363      N4368   1.429       .  S
C4364      C4365   1.422       .  A
C4364      H4369   1.078       .  S
C4365      C4366   1.436       .  A
C4366      N4370   1.425       .  S
C4367      C4372   1.416       .  A
C4367      C4376   1.403       .  A
N4368      O4383   1.262       .  A
N4368      O4384   1.261       .  A
N4370      O4381   1.262       .  A
N4370      O4382   1.263       .  A
C4372      C4373   1.403       .  A
C4372      N4377   1.429       .  S
C4373      C4374   1.402       .  A
C4373      H4378   1.084       .  S
C4374      C4375   1.416       .  A
C4375      C4376   1.403       .  A
C4375      N4379   1.429       .  S
C4376      H4380   1.083       .  S
N4377      O4387   1.262       .  A
N4377      O4388   1.262       .  A
N4379      O4385   1.262       .  A
N4379      O4386   1.262       .  A
C4389      C4390   1.396       .  A
C4389      C4394   1.402       .  A
C4389      H4399   1.084       .  S
C4390      C4395   1.472       .  S
C4390      C4391   1.398       .  A
C4391      C4392   1.390       .  A
C4391      N4396   1.429       .  S
C4392      C4393   1.419       .  A
C4392      H4397   1.083       .  S
C4393      C4394   1.436       .  A
C4394      N4398   1.432       .  S
C4395      C4400   1.405       .  A
C4395      C4404   1.402       .  A
N4396      O4411   1.262       .  A
N4396      O4412   1.262       .  A
N4398      O4409   1.261       .  A
N4398      O4410   1.261       .  A
C4400      C4401   1.392       .  A
C4400      N4405   1.429       .  S
C4401      C4402   1.404       .  A
C4401      H4406   1.084       .  S
C4402      C4403   1.413       .  A
C4403      C4404   1.401       .  A
C4403      N4407   1.429       .  S
C4404      H4408   1.084       .  S
N4405      O4415   1.262       .  A
N4405      O4416   1.261       .  A
N4407      O4413   1.262       .  A
N4407      O4414   1.262       .  A
C4417      C4418   1.400       .  A
C4417      C4422   1.402       .  A
C4417      H4427   1.084       .  S
C4418      C4423   1.473       .  S
C4418      C4419   1.404       .  A
C4419      C4420   1.395       .  A
C4419      N4424   1.428       .  S
C4420      C4421   1.406       .  A
C4420      H4425   1.083       .  S
C4421      C4422   1.416       .  A
C4422      N4426   1.429       .  S
C4423      C4428   1.400       .  A
C4423      C4432   1.393       .  A
N4424      O4439   1.262       .  A
N4424      O4440   1.262       .  A
N4426      O4437   1.262       .  A
N4426      O4438   1.262       .  A
C4428      C4429   1.396       .  A
C4428      N4433   1.428       .  S
C4429      C4430   1.416       .  A
C4429      H4434   1.080       .  S
C4430      C4431   1.435       .  A
C4431      C4432   1.401       .  A
C4431      N4435   1.432       .  S
C4432      H4436   1.084       .  S
N4433      O4443   1.262       .  A
N4433      O4444   1.261       .  A
N4435      O4441   1.262       .  A
N4435      O4442   1.262       .  A
C4445      C4446   1.398       .  A
C4445      C4450   1.404       .  A
C4445      H4455   1.084       .  S
C4446      C4451   1.488       .  S
C4446      C4447   1.405       .  A
C4447      C4448   1.396       .  A
C4447      N4452   1.430       .  S
C4448      C4449   1.415       .  A
C4448      H4453   1.074       .  S
C4449      C4450   1.436       .  A
C4450      N4454   1.432       .  S
C4451      C4456   1.413       .  A
C4451      C4460   1.407       .  A
N4452      O4467   1.262       .  A
N4452      O4468   1.262       .  A
N4454      O4465   1.262       .  A
N4454      O4466   1.262       .  A
C4456      C4457   1.400       .  A
C4456      N4461   1.430       .  S
C4457      C4458   1.402       .  A
C4457      H4462   1.084       .  S
C4458      C4459   1.407       .  A
C4459      C4460   1.402       .  A
C4459      N4463   1.428       .  S
C4460      H4464   1.084       .  S
N4461      O4471   1.262       .  A
N4461      O4472   1.262       .  A
N4463      O4469   1.262       .  A
N4463      O4470   1.262       .  A
C4473      C4474   1.403       .  A
C4473      C4478   1.402       .  A
C4473      H4483   1.084       .  S
C4474      C4479   1.485       .  S
C4474      C4475   1.411       .  A
C4475      C4476   1.400       .  A
C4475      N4480   1.429       .  S
C4476      C4477   1.403       .  A
C4476      H4481   1.084       .  S
C4477      C4478   1.411       .  A
C4478      N4482   1.429       .  S
C4479      C4484   1.402       .  A
C4479      C4488   1.395       .  A
N4480      O4495   1.262       .  A
N4480      O4496   1.262       .  A
N4482      O4493   1.262       .  A
N4482      O4494   1.262       .  A
C4484      C4485   1.398       .  A
C4484      N4489   1.428       .  S
C4485      C4486   1.421       .  A
C4485      H4490   1.084       .  S
C4486      C4487   1.442       .  A
C4487      C4488   1.404       .  A
C4487      N4491   1.431       .  S
C4488      H4492   1.084       .  S
N4489      O4499   1.262       .  A
N4489      O4500   1.262       .  A
N4491      O4497   1.260       .  A
N4491      O4498   1.262       .  A
C4501      C4502   1.397       .  A
C4501      C4506   1.406       .  A
C4501      H4511   1.083       .  S
C4502      C4507   1.499       .  S
C4502      C4503   1.407       .  A
C4503      C4504   1.405       .  A
C4503      N4508   1.429       .  S
C4504      C4505   1.422       .  A
C4504      H4509   1.078       .  S
C4505      C4506   1.436       .  A
C4506      N4510   1.427       .  S
C4507      C4512   1.417       .  A
C4507      C4516   1.405       .  A
N4508      O4523   1.262       .  A
N4508      O4524   1.262       .  A
N4510      O4521   1.262       .  A
N4510      O4522   1.263       .  A
C4512      C4513   1.406       .  A
C4512      N4517   1.429       .  S
C4513      C4514   1.402       .  A
C4513      H4518   1.084       .  S
C4514      C4515   1.411       .  A
C4515      C4516   1.403       .  A
C4515      N4519   1.428       .  S
C4516      H4520   1.083       .  S
N4517      O4527   1.262       .  A
N4517      O4528   1.262       .  A
N4519      O4525   1.262       .  A
N4519      O4526   1.262       .  A
C4529      C4530   1.398       .  A
C4529      C4534   1.403       .  A
C4529      H4539   1.083       .  S
C4530      C4535   1.495       .  S
C4530      C4531   1.409       .  A
C4531      C4532   1.399       .  A
C4531      N4536   1.429       .  S
C4532      C4533   1.419       .  A
C4532      H4537   1.084       .  S
C4533      C4534   1.440       .  A
C4534      N4538   1.430       .  S
C4535      C4540   1.417       .  A
C4535      C4544   1.404       .  A
N4536      O4551   1.262       .  A
N4536      O4552   1.262       .  A
N4538      O4549   1.261       .  A
N4538      O4550   1.262       .  A
C4540      C4541   1.401       .  A
C4540      N4545   1.430       .  S
C4541      C4542   1.402       .  A
C4541      H4546   1.084       .  S
C4542      C4543   1.412       .  A
C4543      C4544   1.401       .  A
C4543      N4547   1.429       .  S
C4544      H4548   1.082       .  S
N4545      O4555   1.262       .  A
N4545      O4556   1.262       .  A
N4547      O4553   1.262       .  A
N4547      O4554   1.261       .  A
C4557      C4558   1.395       .  A
C4557      C4562   1.402       .  A
C4557      H4567   1.085       .  S
C4558      C4563   1.475       .  S
C4558      C4559   1.399       .  A
C4559      C4560   1.394       .  A
C4559      N4564   1.428       .  S
C4560      C4561   1.418       .  A
C4560      H4565   1.083       .  S
C4561      C4562   1.440       .  A
C4562      N4566   1.435       .  S
C4563      C4568   1.408       .  A
C4563      C4572   1.402       .  A
N4564      O4579   1.262       .  A
N4564      O4580   1.262       .  A
N4566      O4577   1.260       .  A
N4566      O4578   1.262       .  A
C4568      C4569   1.399       .  A
C4568      N4573   1.429       .  S
C4569      C4570   1.402       .  A
C4569      H4574   1.084       .  S
C4570      C4571   1.408       .  A
C4571      C4572   1.400       .  A
C4571      N4575   1.427       .  S
C4572      H4576   1.084       .  S
N4573      O4583   1.262       .  A
N4573      O4584   1.262       .  A
N4575      O4581   1.262       .  A
N4575      O4582   1.261       .  A
C4585      C4586   1.395       .  A
C4585      C4590   1.398       .  A
C4585      H4595   1.084       .  S
C4586      C4591   1.486       .  S
C4586      C4587   1.406       .  A
C4587      C4588   1.399       .  A
C4587      N4592   1.429       .  S
C4588      C4589   1.416       .  A
C4588      H4593   1.077       .  S
C4589      C4590   1.436       .  A
C4590      N4594   1.431       .  S
C4591      C4596   1.412       .  A
C4591      C4600   1.402       .  A
N4592      O4607   1.262       .  A
N4592      O4608   1.262       .  A
N4594      O4605   1.262       .  A
N4594      O4606   1.261       .  A
C4596      C4597   1.398       .  A
C4596      N4601   1.429       .  S
C4597      C4598   1.403       .  A
C4597      H4602   1.084       .  S
C4598      C4599   1.417       .  A
C4599      C4600   1.401       .  A
C4599      N4603   1.429       .  S
C4600      H4604   1.083       .  S
N4601      O4611   1.262       .  A
N4601      O4612   1.261       .  A
N4603      O4609   1.261       .  A
N4603      O4610   1.262       .  A
