geometry optimzed in LAMMPS
_audit_creation_date              2020-12-01 
_audit_creation_method            'lammps2cif' 
_symmetry_space_group_name_H-M    'P1' 
_symmetry_Int_Tables_number       1 
_symmetry_cell_setting            triclinic 
loop_ 
_symmetry_equiv_pos_as_xyz 
  x,y,z 
_cell_length_a                    36.37057955 
_cell_length_b                    36.1411383719618 
_cell_length_c                    25.47286321851197 
_cell_angle_alpha                 86.98315296525038 
_cell_angle_beta                  90.74622544763594 
_cell_angle_gamma                 131.28551367371713 
loop_ 
_atom_site_label 
_atom_site_type_symbol 
_atom_site_fract_x 
_atom_site_fract_y 
_atom_site_fract_z 
_atom_site_charge 
C1          C  0.35879249  0.14103085  0.91919753     0.85600
C2          C  0.38342595  0.19372727  0.93089872    -0.54600
C3          C  0.36797836  0.21360578  0.90148373     0.08500
C4          C  0.32854739  0.17849876  0.86174443     0.19500
C5          C  0.30351471  0.11271466  0.92647170    -0.55400
C6          C  0.28761715  0.13228290  0.89654353     0.08600
C7          C  0.36543453  0.14194484  0.86025827    -0.54900
C8          C  0.35072561  0.16194192  0.82900811     0.09000
H9          H  0.40965312  0.21315546  0.96190291     0.13700
H10         H  0.31556548  0.19453132  0.83841767    -0.00500
H11         H  0.27917658  0.08235140  0.95510097     0.14000
H12         H  0.38001525  0.12614828  0.84597476     0.13800
C13         C  0.37303315  0.14797943  0.68582342     0.85600
C14         C  0.31950792  0.11956657  0.67372954    -0.54600
C15         C  0.30030602  0.13745150  0.69523055     0.08500
C16         C  0.33593985  0.18159536  0.72950466     0.19500
C17         C  0.39999446  0.20227677  0.66991533    -0.55400
C18         C  0.38007713  0.21999064  0.69134230     0.08600
C19         C  0.37543544  0.14848739  0.74572965    -0.54900
C20         C  0.35466078  0.16404219  0.76984882     0.09200
H21         H  0.29895642  0.08890308  0.64816040     0.13700
H22         H  0.31984368  0.19540011  0.74775221    -0.00500
H23         H  0.43206935  0.22501920  0.64387253     0.14000
H24         H  0.39512867  0.13976851  0.76639033     0.13800
C25         C  0.15153000  0.38000187  0.17005195     0.85600
C26         C  0.14514272  0.38152038  0.22862897    -0.54600
C27         C  0.16020977  0.36312706  0.26232470     0.08500
C28         C  0.17914547  0.34220971  0.23204008     0.19500
C29         C  0.20508664  0.40435578  0.16158900    -0.55400
C30         C  0.22000288  0.38516052  0.19357870     0.08600
C31         C  0.12336296  0.32524891  0.16281781    -0.54900
C32         C  0.13653779  0.30472580  0.19585018     0.09200
H33         H  0.12793053  0.39531091  0.24056154     0.13700
H34         H  0.19129413  0.32654323  0.25775457    -0.00500
H35         H  0.22860292  0.43267265  0.13056267     0.14000
H36         H  0.09730467  0.30453296  0.13234055     0.13800
C37         C  0.14098608  0.38650642  0.40259012     0.85600
C38         C  0.14391476  0.38814868  0.34248376    -0.54600
C39         C  0.15667800  0.36379596  0.32149537     0.08500
C40         C  0.16725442  0.34023738  0.36485263     0.19500
C41         C  0.10649058  0.33126489  0.41882057    -0.55400
C42         C  0.12045128  0.30688624  0.40099221     0.08600
C43         C  0.19181000  0.40702711  0.41868528    -0.54900
C44         C  0.20618908  0.38348648  0.39935329     0.09200
H45         H  0.13866075  0.40892994  0.31799674     0.13700
H46         H  0.17848573  0.32085877  0.34920181    -0.00500
H47         H  0.07585107  0.31376153  0.44644172     0.14000
H48         H  0.21479465  0.43812079  0.44342573     0.13800
O49         O  0.41037946  0.40393152  0.98364749    -0.81800
O50         O  0.01960926  0.08333013  0.12232905    -0.66500
O51         O  0.48350184  0.00416550  0.00604087    -1.13100
C52         C  0.07672976  0.47308504  0.08656198     1.05100
O53         O  0.09693245  0.11844851  0.11045444    -0.79700
O54         O  0.12311537  0.08727701  0.03650435    -0.67300
Ni55       Ni  0.41618965  0.46082471  0.97944299     1.34900
C56         C  0.11149254  0.06370736  0.99533145     0.83800
O57         O  0.46907684  0.06813736  0.03626568    -0.80200
O58         O  0.41936110  0.01569858  0.97424881    -0.90500
C59         C  0.06475478  0.11817416  0.13014937     0.83400
O60         O  0.38301483  0.44015699  0.04595627    -0.68700
O61         O  0.10130865  0.01498634  0.10598773    -0.88000
C62         C  0.39532749  0.45634786  0.09158978     0.84300
C63         C  0.43781677  0.05333404  0.00048739     1.05800
H64         H  0.01097926  0.99678095  0.12138870     0.37600
O65         O  0.02858472  0.01760764  0.08990822    -1.10600
O66         O  0.06931519  0.02150075  0.99016056    -0.67300
Ni67       Ni  0.00984963  0.47772668  0.02918436     1.26300
O68         O  0.43939599  0.99217613  0.10595819    -0.67500
O69         O  0.03870935  0.45203874  0.05882785    -0.79800
C70         C  0.44083537  0.40023322  0.96838399     0.83600
O71         O  0.48650840  0.43452701  0.97324409    -0.67000
Ni72       Ni  0.09592036  0.06448171  0.10649441     1.27400
Ni73       Ni  0.49893521  0.04298807  0.06423776     1.26100
H74         H  0.00414003  0.02678443  0.97661693     0.38200
O75         O  0.10811718  0.10249964  0.62616577    -0.81800
O76         O  0.42854946  0.50314778  0.48135006    -0.66500
O77         O  0.01047409  0.03043896  0.59409001    -1.13100
C78         C  0.05768444  0.46461981  0.48914095     1.05100
O79         O  0.40228104  0.42819464  0.47822458    -0.79700
O80         O  0.43967980  0.39612319  0.53797504    -0.67300
Ni81       Ni  0.04807289  0.09060980  0.62841184     1.34900
C82         C  0.45925434  0.40361722  0.58230498     0.83800
O83         O  0.44201351  0.04092877  0.56866348    -0.80200
O84         O  0.99177629  0.08423577  0.63541485    -0.90500
C85         C  0.39653190  0.45898679  0.46839112     0.83400
O86         O  0.06906064  0.13375063  0.56725673    -0.68700
O87         O  0.01635542  0.44225467  0.46789704    -0.88000
C88         C  0.05317426  0.12893874  0.52115582     0.84300
C89         C  0.45423765  0.06665070  0.60826296     1.05800
H90         H  0.02570529  0.02500597  0.47488391     0.37600
O91         O  0.50152014  0.50087571  0.50555970    -1.10600
O92         O  0.99647765  0.44603494  0.59564736    -0.67300
Ni93       Ni  0.04338563  0.01269894  0.56123160     1.26300
O94         O  0.01982439  0.08694010  0.50267661    -0.67500
O95         O  0.07303636  0.49393697  0.52607072    -0.79800
C96         C  0.11406741  0.07174468  0.63390628     0.83600
O97         O  0.08320337  0.02809208  0.61967152    -0.67000
Ni98       Ni  0.46125810  0.43805992  0.47525210     1.27400
Ni99       Ni  0.47266151  0.02078111  0.53509245     1.26100
H100        H  0.98772226  0.00489162  0.62066797     0.38200
C101        C  0.29578573  0.45242933  0.40738986    -0.10000
C102        C  0.25584750  0.40122020  0.41034482     0.06200
C103        C  0.26393072  0.36971333  0.42901349    -0.03800
C104        C  0.31033151  0.38964473  0.44554734    -0.08300
C105        C  0.34963295  0.44092503  0.44542593     0.05300
C106        C  0.34193976  0.47251468  0.42531062    -0.03300
Br107      Br  0.39732698  0.04498442  0.41172340    -0.03000
H108        H  0.29064654  0.47734512  0.39249315     0.09200
H109        H  0.31492675  0.36442725  0.46090868     0.07200
Br110      Br  0.21346572  0.29963263  0.43858731    -0.03400
C111        C  0.11485886  0.43814348  0.39411006    -0.10000
C112        C  0.12566657  0.41340462  0.42646847     0.06200
C113        C  0.12063444  0.41349934  0.48182952    -0.03800
C114        C  0.10255044  0.43443431  0.50222845    -0.08300
C115        C  0.08809299  0.45465696  0.46882640     0.05300
C116        C  0.09581156  0.45760385  0.41452846    -0.03300
Br117      Br  0.07960383  0.48702846  0.36558205    -0.03000
H118        H  0.11932763  0.44248094  0.35220953     0.09200
H119        H  0.09719015  0.43232267  0.54424994     0.07200
Br120      Br  0.13517396  0.38362506  0.53241716    -0.03400
C121        C  0.07007014  0.17536103  0.43391554    -0.10000
C122        C  0.07236807  0.17479097  0.48931593     0.06200
C123        C  0.08886552  0.21745408  0.51426421    -0.03800
C124        C  0.10381342  0.25897548  0.48436034    -0.08300
C125        C  0.10235130  0.26000940  0.42932734     0.05300
C126        C  0.08494725  0.21750836  0.40399786    -0.03300
Br127      Br  0.07800648  0.21444471  0.32933601    -0.03000
H128        H  0.05616927  0.14281556  0.41381924     0.09200
H129        H  0.11709998  0.29122439  0.50461867     0.07200
Br130      Br  0.08865718  0.22181144  0.58928339    -0.03400
C131        C  0.04867489  0.17070210  0.16162650    -0.10000
C132        C  0.08066936  0.16173071  0.15776465     0.06200
C133        C  0.12792301  0.19596049  0.17856738    -0.03800
C134        C  0.14453840  0.24111969  0.19467965    -0.08300
C135        C  0.11455450  0.25267238  0.19171730     0.05300
C136        C  0.06478715  0.21501972  0.17977116    -0.03300
Br137      Br  0.01636120  0.22044278  0.19100840    -0.03000
H138        H  0.01116325  0.14365556  0.14948874     0.09200
H139        H  0.18152173  0.26760407  0.20816788     0.07200
Br140      Br  0.17103223  0.18294822  0.18818089    -0.03400
C141        C  0.35565070  0.46391325  0.16401601    -0.10000
C142        C  0.35514888  0.43319173  0.13171095     0.06200
C143        C  0.31145223  0.38338027  0.12987526    -0.03800
C144        C  0.26845753  0.36705720  0.15464112    -0.08300
C145        C  0.26792845  0.39905052  0.18262059     0.05300
C146        C  0.31248416  0.44731241  0.18900560    -0.03300
Br147      Br  0.31522957  0.49305767  0.22781696    -0.03000
H148        H  0.38934818  0.99763293  0.17536300     0.09200
H149        H  0.23455066  0.33040902  0.14801255     0.07200
Br150      Br  0.30723685  0.33644812  0.09148032    -0.03400
C151        C  0.09397259  0.37898751  0.10768643    -0.10000
C152        C  0.13629572  0.40544295  0.13844450     0.06200
C153        C  0.16093061  0.45565743  0.14543582    -0.03800
C154        C  0.14124888  0.47614234  0.12677382    -0.08300
C155        C  0.09702147  0.44875171  0.09990132     0.05300
C156        C  0.07470379  0.40014017  0.08803644    -0.03300
Br157      Br  0.01793625  0.35979702  0.04574628    -0.03000
H158        H  0.07403382  0.34105972  0.09979591     0.09200
H159        H  0.16078942  0.51416383  0.13482533     0.07200
Br160      Br  0.22026761  0.49895291  0.18362060    -0.03400
C161        C  0.38525165  0.08640102  0.69153066    -0.10000
C162        C  0.39100124  0.12415693  0.66155603     0.06200
C163        C  0.40740961  0.13314136  0.60827569    -0.03800
C164        C  0.42518738  0.11138123  0.59014918    -0.08300
C165        C  0.42509264  0.07915433  0.62328011     0.05300
C166        C  0.40326504  0.06521042  0.67346653    -0.03300
Br167      Br  0.39735095  0.01717242  0.71862572    -0.03000
H168        H  0.36663295  0.07275699  0.72958682     0.09200
H169        H  0.44066688  0.12093593  0.55054962     0.07200
Br170      Br  0.40480573  0.17200780  0.55670698    -0.03400
C171        C  0.44973912  0.30928855  0.66984429    -0.10000
C172        C  0.39879788  0.27028296  0.67449232     0.06200
C173        C  0.36826774  0.27929083  0.65586443    -0.03800
C174        C  0.38863640  0.32331957  0.62679296    -0.08300
C175        C  0.43932296  0.36063995  0.61905757     0.05300
C176        C  0.47008217  0.35437569  0.64362371    -0.03300
Br177      Br  0.04017015  0.40421333  0.63972616    -0.03000
H178        H  0.47404270  0.30414077  0.68546414     0.09200
H179        H  0.36465537  0.32842040  0.60987540     0.07200
Br180      Br  0.29892506  0.23465067  0.66720443    -0.03400
C181        C  0.19594228  0.10399892  0.61292262    -0.10000
C182        C  0.16112942  0.08901707  0.65168404     0.06200
C183        C  0.17196142  0.09039541  0.70517191    -0.03800
C184        C  0.21749583  0.10590799  0.71902381    -0.08300
C185        C  0.25219202  0.12018476  0.67996536     0.05300
C186        C  0.24140159  0.12007213  0.62641461    -0.03300
Br187      Br  0.28845525  0.14645565  0.56975553    -0.03000
H188        H  0.18792746  0.10396140  0.57176180     0.09200
H189        H  0.22585305  0.10682313  0.76018484     0.07200
Br190      Br  0.12612638  0.07177687  0.76011770    -0.03400
C191        C  0.35227377  0.07782246  0.98033945    -0.10000
C192        C  0.38144059  0.12241244  0.94912046     0.06200
C193        C  0.43212324  0.14737073  0.94196210    -0.03800
C194        C  0.45078395  0.12594608  0.96206109    -0.08300
C195        C  0.42024098  0.07972503  0.98905683     0.05300
C196        C  0.37110634  0.05643994  0.99965234    -0.03300
Br197      Br  0.31946810  0.48454064  0.02433613    -0.03000
H198        H  0.31406072  0.05759783  0.98831542     0.09200
H199        H  0.48874429  0.14422131  0.95398098     0.07200
Br200      Br  0.47794845  0.20903994  0.90146202    -0.03400
C201        C  0.37830183  0.26630034  0.96874565    -0.10000
C202        C  0.38232224  0.26072756  0.91551612     0.06200
C203        C  0.40448571  0.30138066  0.87908041    -0.03800
C204        C  0.42414538  0.34724239  0.89671159    -0.08300
C205        C  0.42157007  0.35276084  0.95026611     0.05300
C206        C  0.39783923  0.31179035  0.98625245    -0.03300
Br207      Br  0.39370800  0.31683104  0.06023887    -0.03000
H208        H  0.36101893  0.23526946  0.99721001     0.09200
H209        H  0.44162707  0.37862503  0.86872721     0.07200
Br210      Br  0.41158300  0.29712085  0.80595645    -0.03400
C211        C  0.15197957  0.05051067  0.92994572    -0.10000
C212        C  0.15094933  0.08374447  0.95487927     0.06200
C213        C  0.19263398  0.13463247  0.94887480    -0.03800
C214        C  0.23588336  0.15041070  0.92511554    -0.08300
C215        C  0.23853922  0.11633703  0.90660026     0.05300
C216        C  0.19524052  0.06647978  0.90588409    -0.03300
Br217      Br  0.19416313  0.01891678  0.87378852    -0.03000
H218        H  0.12025995  0.01139945  0.93265151     0.09200
H219        H  0.26846911  0.18914299  0.92446898     0.07200
Br220      Br  0.19326731  0.18419042  0.97397121    -0.03400
C221        C  0.35508509  0.63913282  0.91774932     0.85600
C222        C  0.37865469  0.69078586  0.93273161    -0.54600
C223        C  0.36520007  0.71234414  0.90303752     0.08500
C224        C  0.32777591  0.67962794  0.86081195     0.19500
C225        C  0.29964530  0.61058754  0.92218907    -0.55400
C226        C  0.28528949  0.63188121  0.89267879     0.08600
C227        C  0.36486760  0.64338492  0.85901077    -0.54900
C228        C  0.35139426  0.66475029  0.82812484     0.09000
H229        H  0.40307565  0.70848802  0.96548862     0.13700
H230        H  0.31622256  0.69712345  0.83760932    -0.00500
H231        H  0.27438717  0.57948959  0.94976959     0.14000
H232        H  0.37985702  0.62806415  0.84440343     0.13800
C233        C  0.37313697  0.64988419  0.68586007     0.85600
C234        C  0.31875478  0.61887041  0.67667208    -0.54600
C235        C  0.29894676  0.63658513  0.69681839     0.08500
C236        C  0.33496178  0.68273349  0.72858289     0.19500
C237        C  0.39773752  0.70293347  0.66690858    -0.55400
C238        C  0.37766974  0.72035054  0.68857898     0.08600
C239        C  0.37836589  0.65386103  0.74528890    -0.54900
C240        C  0.35632484  0.66813275  0.76911366     0.09200
H241        H  0.29780419  0.58593484  0.65446586     0.13700
H242        H  0.31856144  0.69655680  0.74612386    -0.00500
H243        H  0.42906066  0.72548742  0.63977858     0.14000
H244        H  0.40040809  0.64803182  0.76588819     0.13800
C245        C  0.15286726  0.87927706  0.17405196     0.85600
C246        C  0.14621984  0.88085543  0.23248932    -0.54600
C247        C  0.15965237  0.86099385  0.26631204     0.08500
C248        C  0.17878734  0.84007277  0.23641126     0.19500
C249        C  0.20635711  0.90318980  0.16642314    -0.55400
C250        C  0.22041324  0.88326140  0.19868116     0.08600
C251        C  0.12449448  0.82454296  0.16631946    -0.54900
C252        C  0.13676794  0.80336824  0.19951623     0.09200
H253        H  0.13150858  0.89718586  0.24422479     0.13700
H254        H  0.19020437  0.82369635  0.26212686    -0.00500
H255        H  0.23038045  0.93153724  0.13562115     0.14000
H256        H  0.09943054  0.80439381  0.13490483     0.13800
C257        C  0.14292281  0.88602951  0.40658326     0.85600
C258        C  0.14083587  0.88370432  0.34672641    -0.54600
C259        C  0.15595056  0.86155972  0.32528441     0.08500
C260        C  0.16959714  0.84053199  0.36807665     0.19500
C261        C  0.11050342  0.83157656  0.42544851    -0.55400
C262        C  0.12454656  0.80751906  0.40686576     0.08600
C263        C  0.19518545  0.90890938  0.41933236    -0.54900
C264        C  0.20949061  0.88541875  0.39983925     0.09200
H265        H  0.12581209  0.89620252  0.32357595     0.13700
H266        H  0.18112283  0.82154595  0.35211388    -0.00500
H267        H  0.08056584  0.81410540  0.45403594     0.14000
H268        H  0.21882782  0.94097919  0.44267590     0.13800
O269        O  0.41045421  0.90364337  0.98706016    -0.81800
O270        O  0.01896663  0.58481098  0.11812645    -0.66500
O271        O  0.48205172  0.50484716  0.00219350    -1.13100
C272        C  0.07740083  0.97161276  0.09018041     1.05100
O273        O  0.09603348  0.61946835  0.10616436    -0.79700
O274        O  0.12352255  0.58836980  0.03475436    -0.67300
Ni275      Ni  0.41815867  0.96179223  0.98172991     1.34900
C276        C  0.11135557  0.56631457  0.99239142     0.83800
O277        O  0.46725619  0.56833793  0.03232917    -0.80200
O278        O  0.41522741  0.51314545  0.97328043    -0.90500
C279        C  0.06410896  0.61906244  0.12668254     0.83400
O280        O  0.38372529  0.94180121  0.04740557    -0.68700
O281        O  0.09947873  0.51551360  0.10446565    -0.88000
C282        C  0.39542093  0.95603865  0.09384436     0.84300
C283        C  0.43404382  0.55141567  0.99840568     1.05800
H284        H  0.00976055  0.49758298  0.11685636     0.37600
O285        O  0.02772925  0.51885642  0.08572549    -1.10600
O286        O  0.06879959  0.52488082  0.98593123    -0.67300
Ni287      Ni  0.01010900  0.97590578  0.03376513     1.26300
O288        O  0.43909204  0.49379430  0.10245266    -0.67500
O289        O  0.03813159  0.94958955  0.06435797    -0.79800
C290        C  0.44028706  0.89871212  0.97280658     0.83600
O291        O  0.48599538  0.93210532  0.97837196    -0.67000
Ni292      Ni  0.09466457  0.56534762  0.10385216     1.27400
Ni293      Ni  0.49794837  0.54409230  0.06014246     1.26100
H294        H  0.00191282  0.52724254  0.97231969     0.38200
O295        O  0.10421833  0.59759928  0.63625298    -0.81800
O296        O  0.43322328  0.00565762  0.47603152    -0.66500
O297        O  0.00774928  0.52814599  0.59810409    -1.13100
C298        C  0.05897516  0.96359872  0.48976408     1.05100
O299        O  0.40510672  0.92975237  0.47708051    -0.79700
O300        O  0.44131210  0.89766080  0.53876297    -0.67300
Ni301      Ni  0.04610815  0.58916310  0.63179097     1.34900
C302        C  0.46071542  0.90564886  0.58327924     0.83800
O303        O  0.43633520  0.53512278  0.57560825    -0.80200
O304        O  0.99244976  0.58751786  0.63360715    -0.90500
C305        C  0.40034123  0.96104729  0.46508004     0.83400
O306        O  0.07172190  0.63097828  0.56890269    -0.68700
O307        O  0.01761602  0.94090461  0.46836857    -0.88000
C308        C  0.05256769  0.62705531  0.52511682     0.84300
C309        C  0.45204466  0.56579587  0.61079793     1.05800
H310        H  0.02287184  0.52563275  0.47780956     0.37600
O311        O  0.50412525  0.00116493  0.50316920    -1.10600
O312        O  0.99869181  0.94805945  0.59572633    -0.67300
Ni313      Ni  0.04094594  0.51142963  0.56311108     1.26300
O314        O  0.01466177  0.58561630  0.50907852    -0.67500
O315        O  0.07466311  0.99370745  0.52591690    -0.79800
C316        C  0.11002038  0.56655662  0.63964107     0.83600
O317        O  0.08007835  0.52456983  0.62122233    -0.67000
Ni318      Ni  0.46308794  0.93786223  0.47471659     1.27400
Ni319      Ni  0.46881824  0.51817969  0.53978213     1.26100
H320        H  0.98572384  0.50258550  0.62500327     0.38200
C321        C  0.29951809  0.95442511  0.40449552    -0.10000
C322        C  0.25930042  0.90333130  0.40960525     0.06200
C323        C  0.26737582  0.87194906  0.42887618    -0.03800
C324        C  0.31374105  0.89194516  0.44508349    -0.08300
C325        C  0.35343747  0.94309356  0.44264909     0.05300
C326        C  0.34614767  0.97454864  0.42075416    -0.03300
Br327      Br  0.39157586  0.54326419  0.42200047    -0.03000
H328        H  0.29438763  0.97912819  0.38868075     0.09200
H329        H  0.31816656  0.86684354  0.46143109     0.07200
Br330      Br  0.21757034  0.80181559  0.43849872    -0.03400
C331        C  0.12231565  0.94199673  0.39774946    -0.10000
C332        C  0.12850871  0.91354546  0.43027750     0.06200
C333        C  0.12122785  0.91188622  0.48536371    -0.03800
C334        C  0.10156281  0.93146266  0.50490105    -0.08300
C335        C  0.08938513  0.95339753  0.47075651     0.05300
C336        C  0.10153906  0.96012199  0.41711086    -0.03300
Br337      Br  0.08990795  0.99359419  0.36824661    -0.03000
H338        H  0.13343359  0.95116050  0.35685502     0.09200
H339        H  0.09366108  0.92745539  0.54663830     0.07200
Br340      Br  0.13683179  0.88335407  0.53647656    -0.03400
C341        C  0.07081217  0.67453704  0.43819878    -0.10000
C342        C  0.07371492  0.67365933  0.49351113     0.06200
C343        C  0.09357408  0.71726370  0.51879880    -0.03800
C344        C  0.10916998  0.75929955  0.48942117    -0.08300
C345        C  0.10659104  0.76043553  0.43447126     0.05300
C346        C  0.08777218  0.71767474  0.40866207    -0.03300
Br347      Br  0.08282177  0.71599791  0.33374297    -0.03000
H348        H  0.05530795  0.64162834  0.41787021     0.09200
H349        H  0.12418440  0.79198488  0.50994162     0.07200
Br350      Br  0.09823725  0.72258674  0.59382926    -0.03400
C351        C  0.04851545  0.67067568  0.16214472    -0.10000
C352        C  0.08037916  0.66177571  0.15627962     0.06200
C353        C  0.12781043  0.69530745  0.17704356    -0.03800
C354        C  0.14457304  0.73988304  0.19535101    -0.08300
C355        C  0.11461435  0.75145716  0.19441516     0.05300
C356        C  0.06484352  0.71439416  0.18223606    -0.03300
Br357      Br  0.01695709  0.72036419  0.19451545    -0.03000
H358        H  0.01100167  0.64418698  0.14982465     0.09200
H359        H  0.18176882  0.76617788  0.20841386     0.07200
Br360      Br  0.17131931  0.68250120  0.18294992    -0.03400
C361        C  0.35579738  0.96011543  0.17048928    -0.10000
C362        C  0.35445354  0.93150109  0.13364375     0.06200
C363        C  0.30978031  0.88262023  0.12847399    -0.03800
C364        C  0.26720181  0.86561718  0.15489600    -0.08300
C365        C  0.26766022  0.89589182  0.18742579     0.05300
C366        C  0.31278728  0.94271258  0.19699472    -0.03300
Br367      Br  0.31607496  0.98536987  0.24251935    -0.03000
H368        H  0.38859259  0.50226227  0.16608054     0.09200
H369        H  0.23274670  0.83013617  0.14598343     0.07200
Br370      Br  0.30287882  0.83783828  0.08294594    -0.03400
C371        C  0.09364255  0.87707056  0.11420484    -0.10000
C372        C  0.13768391  0.90459059  0.14212140     0.06200
C373        C  0.16298987  0.95518803  0.14750879    -0.03800
C374        C  0.14356893  0.97574483  0.12775213    -0.08300
C375        C  0.09784565  0.94740754  0.10361283     0.05300
C376        C  0.07354902  0.89756619  0.09556754    -0.03300
Br377      Br  0.01118169  0.85350420  0.06305247    -0.03000
H378        H  0.07210964  0.83834694  0.10926937     0.09200
H379        H  0.16397572  0.01432063  0.13380270     0.07200
Br380      Br  0.22180044  0.99828784  0.18673368    -0.03400
C381        C  0.38740389  0.59021447  0.69457378    -0.10000
C382        C  0.39112298  0.62586414  0.66262401     0.06200
C383        C  0.40433948  0.63146876  0.60867431    -0.03800
C384        C  0.42136995  0.60881619  0.59121505    -0.08300
C385        C  0.42350350  0.57893152  0.62587589     0.05300
C386        C  0.40477480  0.56827412  0.67726469    -0.03300
Br387      Br  0.40260479  0.52418511  0.72548707    -0.03000
H388        H  0.37090006  0.57881907  0.73366935     0.09200
H389        H  0.43444522  0.61578819  0.55083433     0.07200
Br390      Br  0.39807902  0.66662863  0.55563457    -0.03400
C391        C  0.44751779  0.81040260  0.67324275    -0.10000
C392        C  0.39670194  0.77079645  0.67311308     0.06200
C393        C  0.36690015  0.77934533  0.65094498    -0.03800
C394        C  0.38840639  0.82475481  0.62458276    -0.08300
C395        C  0.43936231  0.86289770  0.62103230     0.05300
C396        C  0.46894979  0.85630045  0.64829631    -0.03300
Br397      Br  0.03909115  0.90626041  0.64855618    -0.03000
H398        H  0.47097524  0.80489572  0.69090808     0.09200
H399        H  0.36517985  0.82963224  0.60481050     0.07200
Br400      Br  0.29714988  0.73018989  0.65021504    -0.03400
C401        C  0.18762432  0.58935208  0.61843652    -0.10000
C402        C  0.15657203  0.58231682  0.65719304     0.06200
C403        C  0.17134776  0.59161578  0.70968910    -0.03800
C404        C  0.21770924  0.60859690  0.72236595    -0.08300
C405        C  0.24929999  0.61632426  0.68312812     0.05300
C406        C  0.23377598  0.60675999  0.63047028    -0.03300
Br407      Br  0.27456737  0.62168870  0.57114874    -0.03000
H408        H  0.17641997  0.58283939  0.57787872     0.09200
H409        H  0.22908665  0.61572023  0.76280141     0.07200
Br410      Br  0.12909458  0.58001351  0.76507351    -0.03400
C411        C  0.34575693  0.57167017  0.97290080    -0.10000
C412        C  0.37638878  0.61910858  0.94734356     0.06200
C413        C  0.42775935  0.64594605  0.94484224    -0.03800
C414        C  0.44634093  0.62466863  0.96539448    -0.08300
C415        C  0.41503715  0.57638529  0.98718597     0.05300
C416        C  0.36457560  0.55028314  0.99220939    -0.03300
Br417      Br  0.32754667  0.99415682  0.03910535    -0.03000
H418        H  0.30669079  0.54943407  0.97596798     0.09200
H419        H  0.48517188  0.64482625  0.96121810     0.07200
Br420      Br  0.47523771  0.71027659  0.90972960    -0.03400
C421        C  0.37103354  0.76314368  0.96915299    -0.10000
C422        C  0.38067357  0.75968495  0.91735756     0.06200
C423        C  0.41004781  0.80237940  0.88341821    -0.03800
C424        C  0.42962892  0.84792981  0.90187572    -0.08300
C425        C  0.42033204  0.85117406  0.95395825     0.05300
C426        C  0.39093171  0.80842268  0.98770265    -0.03300
Br427      Br  0.38072582  0.81064174  0.06075649    -0.03000
H428        H  0.34929420  0.73059047  0.99588423     0.09200
H429        H  0.45246683  0.88085462  0.87580809     0.07200
Br430      Br  0.42749360  0.80081254  0.81346325    -0.03400
C431        C  0.15013916  0.55319312  0.92528166    -0.10000
C432        C  0.15059903  0.58669803  0.95181613     0.06200
C433        C  0.19341495  0.63722598  0.94755927    -0.03800
C434        C  0.23589725  0.65206743  0.92290333    -0.08300
C435        C  0.23695757  0.61737062  0.90280315     0.05300
C436        C  0.19286529  0.56804626  0.90133970    -0.03300
Br437      Br  0.18982551  0.51913347  0.86962586    -0.03000
H438        H  0.11767231  0.51436270  0.92715450     0.09200
H439        H  0.26922433  0.69036811  0.92325662     0.07200
Br440      Br  0.19718264  0.68743049  0.97703178    -0.03400
C441        C  0.85879241  0.14103068  0.91919779     0.85600
C442        C  0.88342587  0.19372703  0.93089914    -0.54600
C443        C  0.86797832  0.21360564  0.90148418     0.08500
C444        C  0.82854746  0.17849877  0.86174480     0.19500
C445        C  0.80351462  0.11271451  0.92647188    -0.55400
C446        C  0.78761716  0.13228285  0.89654373     0.08600
C447        C  0.86543455  0.14194480  0.86025852    -0.54900
C448        C  0.85072571  0.16194199  0.82900842     0.09000
H449        H  0.90965307  0.21315516  0.96190335     0.13700
H450        H  0.81556560  0.19453140  0.83841808    -0.00500
H451        H  0.77917643  0.08235122  0.95510113     0.14000
H452        H  0.88001534  0.12614832  0.84597498     0.13800
C453        C  0.87303337  0.14797971  0.68582367     0.85600
C454        C  0.81950815  0.11956693  0.67372980    -0.54600
C455        C  0.80030627  0.13745185  0.69523091     0.08500
C456        C  0.83594017  0.18159572  0.72950500     0.19500
C457        C  0.89999475  0.20227709  0.66991562    -0.55400
C458        C  0.88007743  0.21999097  0.69134260     0.08600
C459        C  0.87543567  0.14848766  0.74572991    -0.54900
C460        C  0.85466103  0.16404248  0.76984913     0.09200
H461        H  0.79895658  0.08890346  0.64816065     0.13700
H462        H  0.81984407  0.19540052  0.74775259    -0.00500
H463        H  0.93206964  0.22501955  0.64387282     0.14000
H464        H  0.89512881  0.13976864  0.76639059     0.13800
C465        C  0.65153022  0.38000212  0.17005188     0.85600
C466        C  0.64514271  0.38152050  0.22862877    -0.54600
C467        C  0.66020933  0.36312682  0.26232470     0.08500
C468        C  0.67914536  0.34220972  0.23204017     0.19500
C469        C  0.70508687  0.40435605  0.16158925    -0.55400
C470        C  0.72000297  0.38516071  0.19357907     0.08600
C471        C  0.62336319  0.32524910  0.16281765    -0.54900
C472        C  0.63653792  0.30472595  0.19585009     0.09200
H473        H  0.62793097  0.39531156  0.24056097     0.13700
H474        H  0.69129396  0.32654318  0.25775463    -0.00500
H475        H  0.72860328  0.43267303  0.13056305     0.14000
H476        H  0.59730494  0.30453312  0.13234034     0.13800
C477        C  0.64098595  0.38650633  0.40259020     0.85600
C478        C  0.64391336  0.38814754  0.34248379    -0.54600
C479        C  0.65667737  0.36379557  0.32149536     0.08500
C480        C  0.66725434  0.34023741  0.36485254     0.19500
C481        C  0.60649072  0.33126493  0.41882109    -0.55400
C482        C  0.62045136  0.30688625  0.40099252     0.08600
C483        C  0.69181010  0.40702736  0.41868473    -0.54900
C484        C  0.70618908  0.38348665  0.39935278     0.09200
H485        H  0.63865567  0.40892580  0.31799691     0.13700
H486        H  0.67848568  0.32085883  0.34920169    -0.00500
H487        H  0.57585131  0.31376165  0.44644231     0.14000
H488        H  0.71479487  0.43812110  0.44342510     0.13800
O489        O  0.91037913  0.40393123  0.98364823    -0.81800
O490        O  0.51960935  0.08333036  0.12232883    -0.66500
O491        O  0.98350184  0.00416536  0.00604110    -1.13100
C492        C  0.57672963  0.47308509  0.08656218     1.05100
O493        O  0.59693253  0.11844886  0.11045395    -0.79700
O494        O  0.62311525  0.08727720  0.03650396    -0.67300
Ni495      Ni  0.91618941  0.46082444  0.97944358     1.34900
C496        C  0.61149245  0.06370741  0.99533119     0.83800
O497        O  0.96907657  0.06813698  0.03626597    -0.80200
O498        O  0.91936087  0.01569822  0.97424909    -0.90500
C499        C  0.56475485  0.11817442  0.13014903     0.83400
O500        O  0.88301475  0.44015697  0.04595690    -0.68700
O501        O  0.60130882  0.01498671  0.10598770    -0.88000
C502        C  0.89532751  0.45634774  0.09159047     0.84300
C503        C  0.93781647  0.05333362  0.00048772     1.05800
H504        H  0.51097933  0.99678134  0.12138869     0.37600
O505        O  0.52858479  0.01760791  0.08990806    -1.10600
O506        O  0.56931515  0.02150073  0.99016040    -0.67300
Ni507      Ni  0.50984961  0.47772677  0.02918408     1.26300
O508        O  0.93939591  0.99217586  0.10595848    -0.67500
O509        O  0.53870932  0.45203883  0.05882784    -0.79800
C510        C  0.94083503  0.40023295  0.96838453     0.83600
O511        O  0.98650810  0.43452684  0.97324441    -0.67000
Ni512      Ni  0.59592049  0.06448207  0.10649412     1.27400
Ni513      Ni  0.99893509  0.04298784  0.06423800     1.26100
H514        H  0.50413993  0.02678445  0.97661667     0.38200
O515        O  0.60811734  0.10249965  0.62616621    -0.81800
O516        O  0.92854937  0.50314783  0.48135002    -0.66500
O517        O  0.51047434  0.03043913  0.59409031    -1.13100
C518        C  0.55768455  0.46461977  0.48914088     1.05100
O519        O  0.90228090  0.42819467  0.47822434    -0.79700
O520        O  0.93967967  0.39612347  0.53797540    -0.67300
Ni521      Ni  0.54807322  0.09061012  0.62841191     1.34900
C522        C  0.95925443  0.40361755  0.58230522     0.83800
O523        O  0.94201338  0.04092883  0.56866327    -0.80200
O524        O  0.49177685  0.08423650  0.63541448    -0.90500
C525        C  0.89653178  0.45898683  0.46839108     0.83400
O526        O  0.56906130  0.13375082  0.56725662    -0.68700
O527        O  0.51635567  0.44225480  0.46789665    -0.88000
C528        C  0.55317474  0.12893884  0.52115581     0.84300
C529        C  0.95423730  0.06665034  0.60826309     1.05800
H530        H  0.52570577  0.02500626  0.47488431     0.37600
O531        O  0.00152011  0.50087585  0.50555953    -1.10600
O532        O  0.49647734  0.44603458  0.59564738    -0.67300
Ni533      Ni  0.54338582  0.01269904  0.56123198     1.26300
O534        O  0.51982470  0.08694021  0.50267674    -0.67500
O535        O  0.57303618  0.49393660  0.52607098    -0.79800
C536        C  0.61406751  0.07174466  0.63390681     0.83600
O537        O  0.58320354  0.02809210  0.61967196    -0.67000
Ni538      Ni  0.96125793  0.43805990  0.47525221     1.27400
Ni539      Ni  0.97266122  0.02078097  0.53509222     1.26100
H540        H  0.48772253  0.00489179  0.62066833     0.38200
C541        C  0.79578575  0.45242936  0.40738940    -0.10000
C542        C  0.75584744  0.40122023  0.41034462     0.06200
C543        C  0.76393051  0.36971338  0.42901388    -0.03800
C544        C  0.81033126  0.38964477  0.44554777    -0.08300
C545        C  0.84963281  0.44092507  0.44542595     0.05300
C546        C  0.84193975  0.47251473  0.42531029    -0.03300
Br547      Br  0.89732662  0.04498388  0.41172258    -0.03000
H548        H  0.79064663  0.47734514  0.39249236     0.09200
H549        H  0.81492647  0.36442734  0.46090947     0.07200
Br550      Br  0.71346545  0.29963266  0.43858844    -0.03400
C551        C  0.61486098  0.43814538  0.39411031    -0.10000
C552        C  0.62566692  0.41340492  0.42646857     0.06200
C553        C  0.62063421  0.41349904  0.48182964    -0.03800
C554        C  0.60255016  0.43443395  0.50222854    -0.08300
C555        C  0.58809322  0.45465707  0.46882645     0.05300
C556        C  0.59581286  0.45760499  0.41452859    -0.03300
Br557      Br  0.57960590  0.48703030  0.36558213    -0.03000
H558        H  0.61933266  0.44248551  0.35221006     0.09200
H559        H  0.59718951  0.43232195  0.54424998     0.07200
Br560      Br  0.63517395  0.38362499  0.53241722    -0.03400
C561        C  0.57007121  0.17536136  0.43391555    -0.10000
C562        C  0.57236845  0.17479102  0.48931595     0.06200
C563        C  0.58886510  0.21745381  0.51426430    -0.03800
C564        C  0.60381289  0.25897514  0.48436054    -0.08300
C565        C  0.60235139  0.26000937  0.42932746     0.05300
C566        C  0.58494818  0.21750863  0.40399789    -0.03300
Br567      Br  0.57800812  0.21444512  0.32933598    -0.03000
H568        H  0.55617096  0.14281614  0.41381913     0.09200
H569        H  0.61709900  0.29122383  0.50461904     0.07200
Br570      Br  0.58865607  0.22181096  0.58928344    -0.03400
C571        C  0.54867495  0.17070232  0.16162643    -0.10000
C572        C  0.58066941  0.16173091  0.15776437     0.06200
C573        C  0.62792311  0.19596064  0.17856706    -0.03800
C574        C  0.64453857  0.24111988  0.19467934    -0.08300
C575        C  0.61455465  0.25267257  0.19171718     0.05300
C576        C  0.56478723  0.21501988  0.17977117    -0.03300
Br577      Br  0.51636143  0.22044313  0.19100841    -0.03000
H578        H  0.51116331  0.14365584  0.14948876     0.09200
H579        H  0.68152189  0.26760418  0.20816755     0.07200
Br580      Br  0.67103198  0.18294792  0.18818088    -0.03400
C581        C  0.85565091  0.46391314  0.16401698    -0.10000
C582        C  0.85514899  0.43319167  0.13171169     0.06200
C583        C  0.81145225  0.38338027  0.12987591    -0.03800
C584        C  0.76845756  0.36705731  0.15464160    -0.08300
C585        C  0.76792856  0.39905065  0.18262110     0.05300
C586        C  0.81248429  0.44731237  0.18900638    -0.03300
Br587      Br  0.81522982  0.49305766  0.22781778    -0.03000
H588        H  0.88934800  0.99763250  0.17536353     0.09200
H589        H  0.73455062  0.33040923  0.14801274     0.07200
Br590      Br  0.80723660  0.33644808  0.09148069    -0.03400
C591        C  0.59397252  0.37898759  0.10768676    -0.10000
C592        C  0.63629589  0.40544315  0.13844439     0.06200
C593        C  0.66093080  0.45565771  0.14543568    -0.03800
C594        C  0.64124886  0.47614253  0.12677387    -0.08300
C595        C  0.59702143  0.44875185  0.09990154     0.05300
C596        C  0.57470369  0.40014021  0.08803695    -0.03300
Br597      Br  0.51793584  0.35979688  0.04574738    -0.03000
H598        H  0.57403363  0.34105974  0.09979656     0.09200
H599        H  0.66078930  0.51416398  0.13482542     0.07200
Br600      Br  0.72026795  0.49895336  0.18361989    -0.03400
C601        C  0.88525148  0.08640099  0.69153087    -0.10000
C602        C  0.89100131  0.12415704  0.66155633     0.06200
C603        C  0.90740980  0.13314155  0.60827597    -0.03800
C604        C  0.92518735  0.11138119  0.59014944    -0.08300
C605        C  0.92509236  0.07915409  0.62328029     0.05300
C606        C  0.90326476  0.06521027  0.67346673    -0.03300
Br607      Br  0.89735042  0.01717205  0.71862577    -0.03000
H608        H  0.86663270  0.07275698  0.72958695     0.09200
H609        H  0.94066694  0.12093594  0.55054996     0.07200
Br610      Br  0.90480624  0.17200819  0.55670733    -0.03400
C611        C  0.94973933  0.30928885  0.66984442    -0.10000
C612        C  0.89879809  0.27028320  0.67449246     0.06200
C613        C  0.86826786  0.27929098  0.65586459    -0.03800
C614        C  0.88863653  0.32331980  0.62679312    -0.08300
C615        C  0.93932305  0.36064029  0.61905791     0.05300
C616        C  0.97008230  0.35437604  0.64362404    -0.03300
Br617      Br  0.54017009  0.40421292  0.63972578    -0.03000
H618        H  0.97404291  0.30414110  0.68546425     0.09200
H619        H  0.86465545  0.32842048  0.60987546     0.07200
Br620      Br  0.79892515  0.23465072  0.66720445    -0.03400
C621        C  0.69594247  0.10399922  0.61292319    -0.10000
C622        C  0.66112951  0.08901708  0.65168467     0.06200
C623        C  0.67196150  0.09039536  0.70517249    -0.03800
C624        C  0.71749598  0.10590800  0.71902432    -0.08300
C625        C  0.75219223  0.12018502  0.67996581     0.05300
C626        C  0.74140184  0.12007255  0.62641506    -0.03300
Br627      Br  0.78845566  0.14645669  0.56975597    -0.03000
H628        H  0.68792761  0.10396187  0.57176239     0.09200
H629        H  0.72585320  0.10682301  0.76018534     0.07200
Br630      Br  0.62612645  0.07177685  0.76011840    -0.03400
C631        C  0.85227342  0.07782191  0.98033945    -0.10000
C632        C  0.88144038  0.12241209  0.94912069     0.06200
C633        C  0.93212307  0.14737044  0.94196247    -0.03800
C634        C  0.95078369  0.12594571  0.96206149    -0.08300
C635        C  0.92024065  0.07972460  0.98905718     0.05300
C636        C  0.87110595  0.05643942  0.99965244    -0.03300
Br637      Br  0.81946811  0.48454102  0.02433764    -0.03000
H638        H  0.81406029  0.05759713  0.98831515     0.09200
H639        H  0.98874405  0.14422094  0.95398143     0.07200
Br640      Br  0.97794837  0.20903979  0.90146250    -0.03400
C641        C  0.87830174  0.26630015  0.96874616    -0.10000
C642        C  0.88232224  0.26072745  0.91551668     0.06200
C643        C  0.90448561  0.30138053  0.87908100    -0.03800
C644        C  0.92414506  0.34724220  0.89671211    -0.08300
C645        C  0.92156973  0.35276060  0.95026662     0.05300
C646        C  0.89783901  0.31179010  0.98625294    -0.03300
Br647      Br  0.89370777  0.31683069  0.06023932    -0.03000
H648        H  0.86101888  0.23526926  0.99721049     0.09200
H649        H  0.94162665  0.37862480  0.86872768     0.07200
Br650      Br  0.91158300  0.29712080  0.80595711    -0.03400
C651        C  0.65197959  0.05051063  0.92994572    -0.10000
C652        C  0.65094927  0.08374446  0.95487909     0.06200
C653        C  0.69263390  0.13463249  0.94887458    -0.03800
C654        C  0.73588334  0.15041070  0.92511556    -0.08300
C655        C  0.73853923  0.11633700  0.90660041     0.05300
C656        C  0.69524056  0.06647974  0.90588414    -0.03300
Br657      Br  0.69416336  0.01891682  0.87378858    -0.03000
H658        H  0.62026001  0.01139940  0.93265154     0.09200
H659        H  0.76846908  0.18914300  0.92446899     0.07200
Br660      Br  0.69326707  0.18419042  0.97397079    -0.03400
C661        C  0.85508520  0.63913275  0.91774929     0.85600
C662        C  0.87865502  0.69078587  0.93273147    -0.54600
C663        C  0.86520048  0.71234425  0.90303740     0.08500
C664        C  0.82777610  0.67962800  0.86081201     0.19500
C665        C  0.79964543  0.61058765  0.92218922    -0.55400
C666        C  0.78528969  0.63188140  0.89267898     0.08600
C667        C  0.86486741  0.64338462  0.85901069    -0.54900
C668        C  0.85139416  0.66475012  0.82812483     0.09000
H669        H  0.90307611  0.70848801  0.96548838     0.13700
H670        H  0.81622283  0.69712358  0.83760938    -0.00500
H671        H  0.77438725  0.57948970  0.94976975     0.14000
H672        H  0.87985662  0.62806364  0.84440329     0.13800
C673        C  0.87313696  0.64988432  0.68586002     0.85600
C674        C  0.81875476  0.61887044  0.67667203    -0.54600
C675        C  0.79894668  0.63658509  0.69681834     0.08500
C676        C  0.83496162  0.68273345  0.72858284     0.19500
C677        C  0.89773732  0.70293349  0.66690835    -0.55400
C678        C  0.87766954  0.72035054  0.68857885     0.08600
C679        C  0.87836602  0.65386134  0.74528884    -0.54900
C680        C  0.85632474  0.66813279  0.76911362     0.09200
H681        H  0.79780426  0.58593494  0.65446570     0.13700
H682        H  0.81856114  0.69655660  0.74612380    -0.00500
H683        H  0.92906023  0.72548731  0.63977803     0.14000
H684        H  0.90040859  0.64803264  0.76588818     0.13800
C685        C  0.65286707  0.87927712  0.17405235     0.85600
C686        C  0.64621959  0.88085536  0.23248974    -0.54600
C687        C  0.65965201  0.86099363  0.26631232     0.08500
C688        C  0.67878705  0.84007266  0.23641147     0.19500
C689        C  0.70635696  0.90318988  0.16642356    -0.55400
C690        C  0.72041301  0.88326129  0.19868145     0.08600
C691        C  0.62449429  0.82454305  0.16631966    -0.54900
C692        C  0.63676772  0.80336826  0.19951630     0.09200
H693        H  0.63150847  0.89718591  0.24422532     0.13700
H694        H  0.69020402  0.82369613  0.26212700    -0.00500
H695        H  0.73038039  0.93153741  0.13562165     0.14000
H696        H  0.59943031  0.80439398  0.13490504     0.13800
C697        C  0.64292244  0.88602904  0.40658369     0.85600
C698        C  0.64083534  0.88370384  0.34672691    -0.54600
C699        C  0.65595014  0.86155933  0.32528474     0.08500
C700        C  0.66959676  0.84053159  0.36807687     0.19500
C701        C  0.61050313  0.83157616  0.42544897    -0.55400
C702        C  0.62454627  0.80751868  0.40686609     0.08600
C703        C  0.69518514  0.90890898  0.41933266    -0.54900
C704        C  0.70949026  0.88541836  0.39983946     0.09200
H705        H  0.62581127  0.89620183  0.32357655     0.13700
H706        H  0.68112246  0.82154556  0.35211412    -0.00500
H707        H  0.58056557  0.81410495  0.45403645     0.14000
H708        H  0.71882761  0.94097891  0.44267604     0.13800
O709        O  0.91045432  0.90364323  0.98706032    -0.81800
O710        O  0.51896645  0.58481117  0.11812579    -0.66500
O711        O  0.98205149  0.50484693  0.00219401    -1.13100
C712        C  0.57740090  0.97161306  0.09018058     1.05100
O713        O  0.59603324  0.61946841  0.10616398    -0.79700
O714        O  0.62352252  0.58836975  0.03475439    -0.67300
Ni715      Ni  0.91815863  0.96179199  0.98173014     1.34900
C716        C  0.61135561  0.56631457  0.99239142     0.83800
O717        O  0.96725584  0.56833751  0.03232990    -0.80200
O718        O  0.91522721  0.51314522  0.97328088    -0.90500
C719        C  0.56410875  0.61906260  0.12668204     0.83400
O720        O  0.88372528  0.94180099  0.04740578    -0.68700
O721        O  0.59947842  0.51551357  0.10446599    -0.88000
C722        C  0.89542083  0.95603840  0.09384460     0.84300
C723        C  0.93404361  0.55141540  0.99840622     1.05800
H724        H  0.50976019  0.49758298  0.11685597     0.37600
O725        O  0.52772906  0.51885646  0.08572518    -1.10600
O726        O  0.56879966  0.52488086  0.98593115    -0.67300
Ni727      Ni  0.51010902  0.97590594  0.03376509     1.26300
O728        O  0.93909213  0.49379399  0.10245339    -0.67500
O729        O  0.53813166  0.94958980  0.06435811    -0.79800
C730        C  0.94028723  0.89871211  0.97280654     0.83600
O731        O  0.98599553  0.93210534  0.97837187    -0.67000
Ni732      Ni  0.59466429  0.56534762  0.10385212     1.27400
Ni733      Ni  0.99794835  0.54409209  0.06014306     1.26100
H734        H  0.50191314  0.52724274  0.97231918     0.38200
O735        O  0.60421819  0.59759888  0.63625347    -0.81800
O736        O  0.93322290  0.00565740  0.47603126    -0.66500
O737        O  0.50774916  0.52814578  0.59810436    -1.13100
C738        C  0.55897539  0.96359887  0.48976439     1.05100
O739        O  0.90510642  0.92975216  0.47708012    -0.79700
O740        O  0.94131166  0.89766071  0.53876284    -0.67300
Ni741      Ni  0.54610811  0.58916293  0.63179116     1.34900
C742        C  0.96071517  0.90564880  0.58327899     0.83800
O743        O  0.93633536  0.53512309  0.57560815    -0.80200
O744        O  0.49244983  0.58751793  0.63360690    -0.90500
C745        C  0.90034096  0.96104707  0.46507960     0.83400
O746        O  0.57172219  0.63097807  0.56890289    -0.68700
O747        O  0.51761637  0.94090496  0.46836866    -0.88000
C748        C  0.55256789  0.62705512  0.52511710     0.84300
C749        C  0.95204469  0.56579594  0.61079806     1.05800
H750        H  0.52287194  0.52563272  0.47780976     0.37600
O751        O  0.00412487  0.00116468  0.50316887    -1.10600
O752        O  0.49869187  0.94805952  0.59572675    -0.67300
Ni753      Ni  0.54094577  0.51142931  0.56311133     1.26300
O754        O  0.51466187  0.58561616  0.50907889    -0.67500
O755        O  0.57466325  0.99370743  0.52591737    -0.79800
C756        C  0.61002011  0.56655613  0.63964146     0.83600
O757        O  0.58007802  0.52456935  0.62122272    -0.67000
Ni758      Ni  0.96308757  0.93786195  0.47471633     1.27400
Ni759      Ni  0.96881830  0.51817990  0.53978199     1.26100
H760        H  0.48572375  0.50258539  0.62500364     0.38200
C761        C  0.79951768  0.95442469  0.40449524    -0.10000
C762        C  0.75930005  0.90333091  0.40960517     0.06200
C763        C  0.76737559  0.87194871  0.42887589    -0.03800
C764        C  0.81374084  0.89194485  0.44508300    -0.08300
C765        C  0.85343721  0.94309325  0.44264851     0.05300
C766        C  0.84614734  0.97454825  0.42075362    -0.03300
Br767      Br  0.89157589  0.54326421  0.42200006    -0.03000
H768        H  0.79438719  0.97912775  0.38868048     0.09200
H769        H  0.81816635  0.86684324  0.46143062     0.07200
Br770      Br  0.71757033  0.80181522  0.43849832    -0.03400
C771        C  0.62231579  0.94199672  0.39775000    -0.10000
C772        C  0.62850843  0.91354505  0.43027802     0.06200
C773        C  0.62122745  0.91188575  0.48536419    -0.03800
C774        C  0.60156254  0.93146231  0.50490151    -0.08300
C775        C  0.58938527  0.95339753  0.47075695     0.05300
C776        C  0.60153950  0.96012226  0.41711134    -0.03300
Br777      Br  0.58990922  0.99359522  0.36824709    -0.03000
H778        H  0.63343397  0.95116061  0.35685560     0.09200
H779        H  0.59366067  0.92745496  0.54663874     0.07200
Br780      Br  0.63683152  0.88335365  0.53647700    -0.03400
C781        C  0.57081212  0.67453681  0.43819908    -0.10000
C782        C  0.57371510  0.67365913  0.49351142     0.06200
C783        C  0.59357448  0.71726360  0.51879907    -0.03800
C784        C  0.60917014  0.75929934  0.48942152    -0.08300
C785        C  0.60659095  0.76043526  0.43447158     0.05300
C786        C  0.58777207  0.71767448  0.40866236    -0.03300
Br787      Br  0.58282154  0.71599756  0.33374331    -0.03000
H788        H  0.55530785  0.64162815  0.41787043     0.09200
H789        H  0.62418457  0.79198467  0.50994195     0.07200
Br790      Br  0.59823808  0.72258673  0.59382956    -0.03400
C791        C  0.54851523  0.67067582  0.16214455    -0.10000
C792        C  0.58037892  0.66177582  0.15627924     0.06200
C793        C  0.62781023  0.69530757  0.17704311    -0.03800
C794        C  0.64457286  0.73988313  0.19535072    -0.08300
C795        C  0.61461414  0.75145721  0.19441511     0.05300
C796        C  0.56484333  0.71439426  0.18223606    -0.03300
Br797      Br  0.51695684  0.72036419  0.19451583    -0.03000
H798        H  0.51100141  0.64418720  0.14982454     0.09200
H799        H  0.68176869  0.76617798  0.20841343     0.07200
Br800      Br  0.67131935  0.68250162  0.18294877    -0.03400
C801        C  0.85579715  0.96011505  0.17048959    -0.10000
C802        C  0.85445331  0.93150079  0.13364389     0.06200
C803        C  0.80978000  0.88262007  0.12847388    -0.03800
C804        C  0.76720147  0.86561705  0.15489580    -0.08300
C805        C  0.76765992  0.89589158  0.18742590     0.05300
C806        C  0.81278704  0.94271222  0.19699497    -0.03300
Br807      Br  0.81607474  0.98536947  0.24251972    -0.03000
H808        H  0.88859289  0.50226210  0.16608180     0.09200
H809        H  0.73274633  0.83013616  0.14598293     0.07200
Br810      Br  0.80287836  0.83783795  0.08294590    -0.03400
C811        C  0.59364218  0.87707061  0.11420556    -0.10000
C812        C  0.63768373  0.90459070  0.14212185     0.06200
C813        C  0.66298982  0.95518814  0.14750907    -0.03800
C814        C  0.64356899  0.97574505  0.12775230    -0.08300
C815        C  0.59784563  0.94740778  0.10361322     0.05300
C816        C  0.57354880  0.89756635  0.09556829    -0.03300
Br817      Br  0.51118127  0.85350441  0.06305361    -0.03000
H818        H  0.57210902  0.83834689  0.10927033     0.09200
H819        H  0.66397592  0.01432092  0.13380269     0.07200
Br820      Br  0.72180022  0.99828785  0.18673410    -0.03400
C821        C  0.88740462  0.59021519  0.69457417    -0.10000
C822        C  0.89112307  0.62586434  0.66262406     0.06200
C823        C  0.90433889  0.63146825  0.60867425    -0.03800
C824        C  0.92136929  0.60881561  0.59121506    -0.08300
C825        C  0.92350348  0.57893155  0.62587615     0.05300
C826        C  0.90477555  0.56827485  0.67726517    -0.03300
Br827      Br  0.90260700  0.52418720  0.72548826    -0.03000
H828        H  0.87090123  0.57882012  0.73366997     0.09200
H829        H  0.93444417  0.61578722  0.55083419     0.07200
Br830      Br  0.89807802  0.66662759  0.55563421    -0.03400
C831        C  0.94751762  0.81040256  0.67324240    -0.10000
C832        C  0.89670175  0.77079646  0.67311287     0.06200
C833        C  0.86690003  0.77934536  0.65094489    -0.03800
C834        C  0.88840618  0.82475487  0.62458274    -0.08300
C835        C  0.93936209  0.86289771  0.62103208     0.05300
C836        C  0.96894963  0.85630039  0.64829590    -0.03300
Br837      Br  0.53909133  0.90626068  0.64855698    -0.03000
H838        H  0.97097507  0.80489567  0.69090768     0.09200
H839        H  0.86517960  0.82963233  0.60481067     0.07200
Br840      Br  0.79714978  0.73018984  0.65021503    -0.03400
C841        C  0.68762436  0.58935242  0.61843647    -0.10000
C842        C  0.65657174  0.58231624  0.65719325     0.06200
C843        C  0.67134718  0.59161427  0.70968951    -0.03800
C844        C  0.71770878  0.60859576  0.72236615    -0.08300
C845        C  0.74929990  0.61632414  0.68312799     0.05300
C846        C  0.73377608  0.60676042  0.63047012    -0.03300
Br847      Br  0.77456756  0.62168946  0.57114845    -0.03000
H848        H  0.67642010  0.58284023  0.57787863     0.09200
H849        H  0.72908606  0.61571848  0.76280170     0.07200
Br850      Br  0.62909327  0.58001018  0.76507425    -0.03400
C851        C  0.84575695  0.57167018  0.97290122    -0.10000
C852        C  0.87638879  0.61910843  0.94734353     0.06200
C853        C  0.92775930  0.64594572  0.94484199    -0.03800
C854        C  0.94634085  0.62466829  0.96539440    -0.08300
C855        C  0.91503706  0.57638514  0.98718635     0.05300
C856        C  0.86457558  0.55028319  0.99221000    -0.03300
Br857      Br  0.82754601  0.99415615  0.03910531    -0.03000
H858        H  0.80669084  0.54943427  0.97596866     0.09200
H859        H  0.98517179  0.64482582  0.96121780     0.07200
Br860      Br  0.97523763  0.71027601  0.90972911    -0.03400
C861        C  0.87103390  0.76314372  0.96915283    -0.10000
C862        C  0.88067401  0.75968509  0.91735747     0.06200
C863        C  0.91004811  0.80237954  0.88341807    -0.03800
C864        C  0.92962905  0.84792992  0.90187555    -0.08300
C865        C  0.92033229  0.85117413  0.95395810     0.05300
C866        C  0.89093204  0.80842272  0.98770255    -0.03300
Br867      Br  0.88072636  0.81064175  0.06075646    -0.03000
H868        H  0.84929460  0.73059048  0.99588398     0.09200
H869        H  0.95246672  0.88085472  0.87580791     0.07200
Br870      Br  0.92749366  0.80081258  0.81346312    -0.03400
C871        C  0.65013933  0.55319314  0.92528170    -0.10000
C872        C  0.65059909  0.58669802  0.95181616     0.06200
C873        C  0.69341493  0.63722601  0.94755924    -0.03800
C874        C  0.73589730  0.65206750  0.92290340    -0.08300
C875        C  0.73695770  0.61737071  0.90280326     0.05300
C876        C  0.69286549  0.56804638  0.90133973    -0.03300
Br877      Br  0.68982581  0.51913356  0.86962590    -0.03000
H878        H  0.61767253  0.51436269  0.92715460     0.09200
H879        H  0.76922435  0.69036824  0.92325663     0.07200
Br880      Br  0.69718238  0.68743049  0.97703140    -0.03400
loop_ 
_geom_bond_atom_site_label_1 
_geom_bond_atom_site_label_2 
_geom_bond_distance 
_geom_bond_site_symmetry_2 
_ccdc_geom_bond_type 
C1            C2   1.523       .  S
C1            C7   1.519       .  S
C1            C5   1.549       .  S
C1          C192   1.541       .  S
C2            H9   1.087       .  S
C2            C3   1.363       .  D
C3            C4   1.545       .  S
C3          C202   1.479       .  S
C4            C8   1.553       .  S
C4            C6   1.546       .  S
C4           H10   1.109       .  S
C5           H11   1.082       .  S
C5            C6   1.374       .  D
C6          C215   1.491       .  S
C7           H12   1.080       .  S
C7            C8   1.371       .  D
C8           C20   1.509       .  S
C13          C14   1.523       .  S
C13          C19   1.528       .  S
C13          C17   1.538       .  S
C13         C162   1.536       .  S
C14          H21   1.087       .  S
C14          C15   1.360       .  D
C15          C16   1.541       .  S
C15         C185   1.473       .  S
C16          C20   1.551       .  S
C16          C18   1.551       .  S
C16          H22   1.107       .  S
C17          H23   1.084       .  S
C17          C18   1.375       .  D
C18         C172   1.498       .  S
C19          H24   1.077       .  S
C19          C20   1.369       .  D
C25          C26   1.522       .  S
C25          C31   1.535       .  S
C25          C29   1.531       .  S
C25         C152   1.544       .  S
C26          H33   1.080       .  S
C26          C27   1.374       .  D
C27          C28   1.550       .  S
C27          C39   1.517       .  S
C28          C32   1.553       .  S
C28          C30   1.553       .  S
C28          H34   1.108       .  S
C29          H35   1.087       .  S
C29          C30   1.366       .  D
C30         C145   1.487       .  S
C31          H36   1.080       .  S
C31          C32   1.371       .  D
C32         C135   1.491       .  S
C37          C38   1.531       .  S
C37          C43   1.529       .  S
C37          C41   1.534       .  S
C37         C112   1.553       .  S
C38          H45   1.061       .  S
C38          C39   1.368       .  D
C39          C40   1.554       .  S
C40          C44   1.553       .  S
C40          C42   1.554       .  S
C40          H46   1.108       .  S
C41          H47   1.086       .  S
C41          C42   1.371       .  D
C42         C125   1.495       .  S
C43          H48   1.086       .  S
C43          C44   1.370       .  D
C44         C102   1.493       .  S
O49         Ni55   1.920       .  S
O49          C70   1.268       .  A
O50        Ni513   1.906   1_455  S
O50          C59   1.269       .  A
O51         Ni73   1.908       .  S
O51        Ni275   1.907   1_544  S
O51        Ni727   1.921   1_545  S
O51         H514   0.966   1_554  S
C52          O69   1.278       .  A
C52         O281   1.278       .  A
C52         C155   1.501       .  S
O53         Ni72   1.934       .  S
O53          C59   1.273       .  A
O54         Ni72   1.911       .  S
O54          C56   1.269   1_554  A
Ni55         O60   1.901   1_556  S
Ni55        O278   1.912       .  S
Ni55        O271   1.907   1_556  S
C56          O66   1.275       .  A
C56         C212   1.495       .  S
O57         Ni73   1.931       .  S
O57          C63   1.277       .  A
O58        Ni275   1.919   1_545  S
O58          C63   1.275   1_556  A
C59         C132   1.487       .  S
O60          C62   1.267       .  A
O61         Ni72   1.924       .  S
O61         C272   1.278   1_545  A
C62         O288   1.276       .  A
C62         C142   1.488       .  S
C63         C195   1.474   1_554  S
H64          O65   0.966   1_565  S
O65         Ni72   1.903       .  S
O65        Ni513   1.912   1_455  S
O65        Ni287   1.906   1_545  S
O66        Ni287   1.942   1_546  S
Ni67         O69   1.930       .  S
Ni67        O286   1.938   1_554  S
Ni67        O511   1.909   1_454  S
Ni67        O711   1.917   1_455  S
Ni67        O285   1.906       .  S
O68         Ni73   1.949   1_565  S
O68         C282   1.278       .  A
C70          O71   1.267       .  A
C70         C205   1.462       .  S
O71        Ni507   1.909   1_556  S
Ni73        O490   1.906       .  S
Ni73        O505   1.912       .  S
H74         O491   0.966   1_456  S
O75         Ni81   1.929       .  S
O75          C96   1.271       .  A
O76        Ni319   1.906       .  S
O76          C85   1.267       .  A
O77         Ni81   1.900       .  S
O77         Ni93   1.908       .  S
O77        Ni539   1.908   1_455  S
O77         H100   0.968   1_455  S
C78          O95   1.277       .  A
C78          O87   1.276       .  A
C78         C115   1.477       .  S
O79         Ni98   1.930       .  S
O79          C85   1.273       .  A
O80         Ni98   1.917       .  S
O80          C82   1.270       .  A
Ni81         O84   1.913   1_455  S
Ni81         O86   1.909       .  S
C82         O532   1.266       .  A
C82         C175   1.481       .  S
O83         Ni99   1.915       .  S
O83          C89   1.273       .  A
O84         C529   1.274       .  A
C85         C105   1.491       .  S
O86          C88   1.271       .  A
O87        Ni538   1.918   1_455  S
C88          O94   1.276       .  A
C88         C122   1.496       .  S
C89         O524   1.274       .  A
C89         C165   1.461       .  S
H90         O751   0.967       .  S
O91         Ni98   1.914       .  S
O91        Ni319   1.906       .  S
O91        Ni753   1.906       .  S
O91         H750   0.966       .  S
O92        Ni313   1.917   1_655  S
O92         C522   1.266       .  A
Ni93         O97   1.895       .  S
Ni93        O312   1.919   1_445  S
Ni93        O315   1.923   1_545  S
Ni93        O751   1.904       .  S
O94        Ni539   1.939   1_455  S
O95        Ni313   1.928       .  S
C96          O97   1.262       .  A
C96         C182   1.457       .  S
Ni98        O527   1.918       .  S
Ni99        O296   1.901       .  S
Ni99        O534   1.939       .  S
Ni99        O517   1.908       .  S
Ni99        O311   1.905       .  S
C101        C102   1.408       .  A
C101        C106   1.400       .  A
C101        H108   1.084       .  S
C102        C103   1.411       .  A
C103        C104   1.398       .  A
C103       Br110   1.912       .  S
C104        C105   1.408       .  A
C104        H109   1.083       .  S
C105        C106   1.414       .  A
C106       Br327   1.922       .  S
Br107       C326   1.922   1_545  S
C111        C112   1.418       .  A
C111        C116   1.391       .  A
C111        H118   1.069       .  S
C112        C113   1.425       .  A
C113        C114   1.408       .  A
C113       Br120   1.922       .  S
C114        C115   1.402       .  A
C114        H119   1.080       .  S
C115        C116   1.399       .  A
C116       Br117   1.924       .  S
C121        C122   1.412       .  A
C121        C126   1.412       .  A
C121        H128   1.083       .  S
C122        C123   1.419       .  A
C123        C124   1.393       .  A
C123       Br130   1.926       .  S
C124        C125   1.402       .  A
C124        H129   1.083       .  S
C125        C126   1.410       .  A
C126       Br127   1.915       .  S
C131        C132   1.405       .  A
C131        C136   1.398       .  A
C131        H138   1.083       .  S
C132        C133   1.416       .  A
C133        C134   1.400       .  A
C133       Br140   1.921       .  S
C134        C135   1.402       .  A
C134        H139   1.080       .  S
C135        C136   1.414       .  A
C136       Br137   1.923       .  S
C141        C142   1.407       .  A
C141        C146   1.405       .  A
C141        H368   1.083       .  S
C142        C143   1.414       .  A
C143        C144   1.400       .  A
C143       Br150   1.920       .  S
C144        C145   1.401       .  A
C144        H149   1.080       .  S
C145        C146   1.410       .  A
C146       Br147   1.916       .  S
H148        C361   1.083       .  S
C151        C152   1.415       .  A
C151        C156   1.408       .  A
C151        H158   1.076       .  S
C152        C153   1.418       .  A
C153        C154   1.393       .  A
C153       Br160   1.924       .  S
C154        C155   1.406       .  A
C154        H159   1.083       .  S
C155        C156   1.416       .  A
C156       Br157   1.919       .  S
C161        C162   1.417       .  A
C161        C166   1.391       .  A
C161        H168   1.081       .  S
C162        C163   1.422       .  A
C163        C164   1.402       .  A
C163       Br170   1.920       .  S
C164        C165   1.400       .  A
C164        H169   1.084       .  S
C165        C166   1.396       .  A
C166       Br167   1.920       .  S
C171        C172   1.406       .  A
C171        C176   1.399       .  A
C171        H178   1.084       .  S
C172        C173   1.418       .  A
C173        C174   1.401       .  A
C173       Br180   1.910       .  S
C174        C175   1.399       .  A
C174        H179   1.084       .  S
C175        C176   1.413       .  A
C176       Br617   1.919       .  S
Br177       C616   1.919   1_455  S
C181        C182   1.394       .  A
C181        C186   1.389       .  A
C181        H188   1.084       .  S
C182        C183   1.408       .  A
C183        C184   1.401       .  A
C183       Br190   1.916       .  S
C184        C185   1.403       .  A
C184        H189   1.084       .  S
C185        C186   1.414       .  A
C186       Br187   1.920       .  S
C191        C192   1.409       .  A
C191        C196   1.399       .  A
C191        H198   1.076       .  S
C192        C193   1.429       .  A
C193        C194   1.402       .  A
C193       Br200   1.926       .  S
C194        C195   1.396       .  A
C194        H199   1.084       .  S
C195        C196   1.407       .  A
C196       Br417   1.919   1_546  S
Br197       C416   1.922   1_554  S
C201        C202   1.405       .  A
C201        C206   1.391       .  A
C201        H208   1.084       .  S
C202        C203   1.408       .  A
C203        C204   1.402       .  A
C203       Br210   1.912       .  S
C204        C205   1.402       .  A
C204        H209   1.083       .  S
C205        C206   1.403       .  A
C206       Br207   1.920   1_556  S
C211        C212   1.410       .  A
C211        C216   1.405       .  A
C211        H218   1.083       .  S
C212        C213   1.415       .  A
C213        C214   1.404       .  A
C213       Br220   1.919       .  S
C214        C215   1.403       .  A
C214        H219   1.083       .  S
C215        C216   1.409       .  A
C216       Br217   1.919       .  S
C221        C222   1.523       .  S
C221        C227   1.519       .  S
C221        C225   1.546       .  S
C221        C412   1.536       .  S
C222        H229   1.087       .  S
C222        C223   1.360       .  D
C223        C224   1.543       .  S
C223        C422   1.472       .  S
C224        C228   1.548       .  S
C224        C226   1.546       .  S
C224        H230   1.109       .  S
C225        H231   1.083       .  S
C225        C226   1.374       .  D
C226        C435   1.487       .  S
C227        H232   1.081       .  S
C227        C228   1.371       .  D
C228        C240   1.505       .  S
C233        C234   1.521       .  S
C233        C239   1.526       .  S
C233        C237   1.536       .  S
C233        C382   1.531       .  S
C234        H241   1.086       .  S
C234        C235   1.358       .  D
C235        C236   1.544       .  S
C235        C405   1.478       .  S
C236        C240   1.553       .  S
C236        C238   1.552       .  S
C236        H242   1.108       .  S
C237        H243   1.084       .  S
C237        C238   1.374       .  D
C238        C392   1.491       .  S
C239        H244   1.078       .  S
C239        C240   1.367       .  D
C245        C246   1.521       .  S
C245        C251   1.536       .  S
C245        C249   1.531       .  S
C245        C372   1.543       .  S
C246        H253   1.079       .  S
C246        C247   1.372       .  D
C247        C248   1.551       .  S
C247        C259   1.512       .  S
C248        C252   1.548       .  S
C248        C250   1.554       .  S
C248        H254   1.108       .  S
C249        H255   1.087       .  S
C249        C250   1.367       .  D
C250        C365   1.486       .  S
C251        H256   1.081       .  S
C251        C252   1.369       .  D
C252        C355   1.488       .  S
C257        C258   1.530       .  S
C257        C263   1.530       .  S
C257        C261   1.532       .  S
C257        C332   1.545       .  S
C258        H265   1.068       .  S
C258        C259   1.369       .  D
C259        C260   1.552       .  S
C260        C264   1.547       .  S
C260        C262   1.557       .  S
C260        H266   1.107       .  S
C261        H267   1.086       .  S
C261        C262   1.370       .  D
C262        C345   1.495       .  S
C263        H268   1.086       .  S
C263        C264   1.368       .  D
C264        C322   1.490       .  S
O269       Ni275   1.925       .  S
O269        C290   1.270       .  A
O270       Ni733   1.910   1_455  S
O270        C279   1.270       .  A
O271       Ni293   1.908       .  S
O271       Ni507   1.917       .  S
O271        H734   0.966   1_554  S
C272        O289   1.279       .  A
C272        C375   1.502       .  S
O273       Ni292   1.928       .  S
O273        C279   1.270       .  A
O274       Ni292   1.906       .  S
O274        C276   1.268   1_554  A
Ni275       O280   1.903   1_556  S
C276        O286   1.275       .  A
C276        C432   1.490       .  S
O277       Ni293   1.929       .  S
O277        C283   1.278   1_554  A
O278        C283   1.274       .  A
C279        C352   1.486       .  S
O280        C282   1.268       .  A
O281       Ni292   1.920       .  S
C282        C362   1.495       .  S
C283        C415   1.471       .  S
H284        O285   0.966       .  S
O285       Ni733   1.911   1_455  S
O285       Ni292   1.902       .  S
Ni287       O731   1.907   1_454  S
Ni287       O289   1.932       .  S
Ni287       O491   1.921   1_465  S
O288       Ni293   1.941       .  S
C290        O291   1.267       .  A
C290        C425   1.463       .  S
O291       Ni727   1.907   1_556  S
Ni293       O710   1.910       .  S
Ni293       O725   1.911       .  S
H294        O711   0.966   1_456  S
O295       Ni301   1.929       .  S
O295        C316   1.270       .  A
O296        C305   1.266   1_545  A
O297       Ni301   1.911       .  S
O297       Ni759   1.916   1_455  S
O297       Ni313   1.914       .  S
O297        H320   0.967   1_455  S
C298        O315   1.277       .  A
C298        O307   1.277       .  A
C298        C335   1.471       .  S
O299       Ni318   1.929       .  S
O299        C305   1.274       .  A
O300       Ni318   1.915       .  S
O300        C302   1.270       .  A
Ni301       O304   1.914   1_455  S
Ni301       O306   1.909       .  S
C302        O752   1.266       .  A
C302        C395   1.481       .  S
O303       Ni319   1.909       .  S
O303        C309   1.271       .  A
O304        C749   1.272       .  A
C305        C325   1.487       .  S
O306        C308   1.271       .  A
O307       Ni758   1.921   1_455  S
C308        O314   1.279       .  A
C308        C342   1.497       .  S
C309        O744   1.272       .  A
C309        C385   1.460       .  S
H310        O531   0.966       .  S
O311       Ni533   1.904       .  S
O311       Ni318   1.905   1_545  S
O311        H530   0.967       .  S
O312        C742   1.266       .  A
Ni313       O317   1.889       .  S
Ni313       O531   1.906       .  S
O314       Ni759   1.950   1_455  S
C316        O317   1.261       .  A
C316        C402   1.458       .  S
Ni318       O747   1.921       .  S
Ni319       O754   1.950       .  S
Ni319       O737   1.916       .  S
C321        C322   1.408       .  A
C321        C326   1.401       .  A
C321        H328   1.084       .  S
C322        C323   1.411       .  A
C323        C324   1.393       .  A
C323       Br330   1.911       .  S
C324        C325   1.405       .  A
C324        H329   1.083       .  S
C325        C326   1.415       .  A
C331        C332   1.416       .  A
C331        C336   1.393       .  A
C331        H338   1.075       .  S
C332        C333   1.422       .  A
C333        C334   1.405       .  A
C333       Br340   1.922       .  S
C334        C335   1.401       .  A
C334        H339   1.082       .  S
C335        C336   1.400       .  A
C336       Br337   1.922       .  S
C341        C342   1.412       .  A
C341        C346   1.413       .  A
C341        H348   1.083       .  S
C342        C343   1.419       .  A
C343        C344   1.394       .  A
C343       Br350   1.925       .  S
C344        C345   1.402       .  A
C344        H349   1.083       .  S
C345        C346   1.410       .  A
C346       Br347   1.915       .  S
C351        C352   1.404       .  A
C351        C356   1.396       .  A
C351        H358   1.083       .  S
C352        C353   1.417       .  A
C353        C354   1.400       .  A
C353       Br360   1.922       .  S
C354        C355   1.401       .  A
C354        H359   1.081       .  S
C355        C356   1.413       .  A
C356       Br357   1.922       .  S
C361        C362   1.410       .  A
C361        C366   1.408       .  A
C362        C363   1.417       .  A
C363        C364   1.399       .  A
C363       Br370   1.919       .  S
C364        C365   1.398       .  A
C364        H369   1.081       .  S
C365        C366   1.409       .  A
C366       Br367   1.918       .  S
C371        C372   1.415       .  A
C371        C376   1.406       .  A
C371        H378   1.076       .  S
C372        C373   1.418       .  A
C373        C374   1.396       .  A
C373       Br380   1.926       .  S
C374        C375   1.409       .  A
C374        H379   1.083   1_565  S
C375        C376   1.415       .  A
C376       Br377   1.921       .  S
C381        C382   1.415       .  A
C381        C386   1.388       .  A
C381        H388   1.081       .  S
C382        C383   1.421       .  A
C383        C384   1.402       .  A
C383       Br390   1.920       .  S
C384        C385   1.400       .  A
C384        H389   1.084       .  S
C385        C386   1.396       .  A
C386       Br387   1.920       .  S
C391        C392   1.405       .  A
C391        C396   1.400       .  A
C391        H398   1.084       .  S
C392        C393   1.413       .  A
C393        C394   1.400       .  A
C393       Br400   1.910       .  S
C394        C395   1.401       .  A
C394        H399   1.084       .  S
C395        C396   1.414       .  A
C396       Br837   1.921       .  S
Br397       C836   1.921   1_455  S
C401        C402   1.392       .  A
C401        C406   1.386       .  A
C401        H408   1.085       .  S
C402        C403   1.407       .  A
C403        C404   1.402       .  A
C403       Br410   1.916       .  S
C404        C405   1.405       .  A
C404        H409   1.084       .  S
C405        C406   1.417       .  A
C406       Br407   1.921       .  S
C411        C412   1.409       .  A
C411        C416   1.399       .  A
C411        H418   1.077       .  S
C412        C413   1.429       .  A
C413        C414   1.399       .  A
C413       Br420   1.926       .  S
C414        C415   1.394       .  A
C414        H419   1.084       .  S
C415        C416   1.408       .  A
C421        C422   1.402       .  A
C421        C426   1.391       .  A
C421        H428   1.084       .  S
C422        C423   1.406       .  A
C423        C424   1.401       .  A
C423       Br430   1.915       .  S
C424        C425   1.403       .  A
C424        H429   1.083       .  S
C425        C426   1.405       .  A
C426       Br427   1.918   1_556  S
C431        C432   1.408       .  A
C431        C436   1.402       .  A
C431        H438   1.083       .  S
C432        C433   1.415       .  A
C433        C434   1.402       .  A
C433       Br440   1.920       .  S
C434        C435   1.403       .  A
C434        H439   1.083       .  S
C435        C436   1.409       .  A
C436       Br437   1.918       .  S
C441        C442   1.523       .  S
C441        C447   1.519       .  S
C441        C445   1.549       .  S
C441        C632   1.541       .  S
C442        H449   1.087       .  S
C442        C443   1.363       .  D
C443        C444   1.545       .  S
C443        C642   1.479       .  S
C444        C448   1.553       .  S
C444        C446   1.546       .  S
C444        H450   1.109       .  S
C445        H451   1.082       .  S
C445        C446   1.374       .  D
C446        C655   1.491       .  S
C447        H452   1.080       .  S
C447        C448   1.371       .  D
C448        C460   1.509       .  S
C453        C454   1.523       .  S
C453        C459   1.528       .  S
C453        C457   1.538       .  S
C453        C602   1.536       .  S
C454        H461   1.087       .  S
C454        C455   1.360       .  D
C455        C456   1.541       .  S
C455        C625   1.473       .  S
C456        C460   1.551       .  S
C456        C458   1.551       .  S
C456        H462   1.107       .  S
C457        H463   1.084       .  S
C457        C458   1.375       .  D
C458        C612   1.498       .  S
C459        H464   1.077       .  S
C459        C460   1.369       .  D
C465        C466   1.522       .  S
C465        C471   1.535       .  S
C465        C469   1.531       .  S
C465        C592   1.544       .  S
C466        H473   1.080       .  S
C466        C467   1.374       .  D
C467        C468   1.550       .  S
C467        C479   1.517       .  S
C468        C472   1.553       .  S
C468        C470   1.553       .  S
C468        H474   1.108       .  S
C469        H475   1.087       .  S
C469        C470   1.366       .  D
C470        C585   1.487       .  S
C471        H476   1.080       .  S
C471        C472   1.371       .  D
C472        C575   1.491       .  S
C477        C478   1.531       .  S
C477        C483   1.529       .  S
C477        C481   1.534       .  S
C477        C552   1.553       .  S
C478        H485   1.061       .  S
C478        C479   1.368       .  D
C479        C480   1.554       .  S
C480        C484   1.553       .  S
C480        C482   1.554       .  S
C480        H486   1.108       .  S
C481        H487   1.086       .  S
C481        C482   1.371       .  D
C482        C565   1.495       .  S
C483        H488   1.086       .  S
C483        C484   1.370       .  D
C484        C542   1.493       .  S
O489       Ni495   1.920       .  S
O489        C510   1.268       .  A
O490        C499   1.269       .  A
O491       Ni715   1.907   1_544  S
O491       Ni513   1.908       .  S
C492        O509   1.278       .  A
C492        O721   1.278       .  A
C492        C595   1.501       .  S
O493       Ni512   1.934       .  S
O493        C499   1.273       .  A
O494       Ni512   1.911       .  S
O494        C496   1.269   1_554  A
Ni495       O718   1.912       .  S
Ni495       O500   1.901   1_556  S
Ni495       O711   1.907   1_556  S
C496        O506   1.275       .  A
C496        C652   1.495       .  S
O497       Ni513   1.931       .  S
O497        C503   1.277       .  A
O498       Ni715   1.919   1_545  S
O498        C503   1.275   1_556  A
C499        C572   1.487       .  S
O500        C502   1.267       .  A
O501       Ni512   1.924       .  S
O501        C712   1.278   1_545  A
C502        O728   1.276       .  A
C502        C582   1.488       .  S
C503        C635   1.474   1_554  S
H504        O505   0.966   1_565  S
O505       Ni727   1.906   1_545  S
O505       Ni512   1.903       .  S
O506       Ni727   1.942   1_546  S
Ni507       O726   1.938   1_554  S
Ni507       O509   1.930       .  S
Ni507       O725   1.906       .  S
O508       Ni513   1.949   1_565  S
O508        C722   1.278       .  A
C510        O511   1.267       .  A
C510        C645   1.462       .  S
O515       Ni521   1.929       .  S
O515        C536   1.271       .  A
O516       Ni759   1.906       .  S
O516        C525   1.267       .  A
O517       Ni521   1.900       .  S
O517       Ni533   1.908       .  S
O517        H540   0.968       .  S
C518        O535   1.277       .  A
C518        O527   1.276       .  A
C518        C555   1.477       .  S
O519       Ni538   1.930       .  S
O519        C525   1.273       .  A
O520       Ni538   1.917       .  S
O520        C522   1.270       .  A
Ni521       O524   1.913       .  S
Ni521       O526   1.909       .  S
C522        C615   1.481       .  S
O523       Ni539   1.915       .  S
O523        C529   1.273       .  A
C525        C545   1.491       .  S
O526        C528   1.271       .  A
C528        O534   1.276       .  A
C528        C562   1.496       .  S
C529        C605   1.461       .  S
O531       Ni759   1.906   1_455  S
O531       Ni538   1.914   1_455  S
O532       Ni753   1.917       .  S
Ni533       O752   1.919   1_545  S
Ni533       O537   1.895       .  S
Ni533       O755   1.923   1_545  S
O535       Ni753   1.928       .  S
C536        O537   1.262       .  A
C536        C622   1.457       .  S
Ni539       O736   1.901       .  S
Ni539       O751   1.905   1_655  S
C541        C542   1.408       .  A
C541        C546   1.400       .  A
C541        H548   1.084       .  S
C542        C543   1.411       .  A
C543        C544   1.398       .  A
C543       Br550   1.912       .  S
C544        C545   1.408       .  A
C544        H549   1.083       .  S
C545        C546   1.414       .  A
C546       Br767   1.922       .  S
Br547       C766   1.922   1_545  S
C551        C552   1.418       .  A
C551        C556   1.391       .  A
C551        H558   1.069       .  S
C552        C553   1.425       .  A
C553        C554   1.408       .  A
C553       Br560   1.922       .  S
C554        C555   1.402       .  A
C554        H559   1.080       .  S
C555        C556   1.399       .  A
C556       Br557   1.924       .  S
C561        C562   1.412       .  A
C561        C566   1.412       .  A
C561        H568   1.083       .  S
C562        C563   1.419       .  A
C563        C564   1.393       .  A
C563       Br570   1.926       .  S
C564        C565   1.402       .  A
C564        H569   1.083       .  S
C565        C566   1.410       .  A
C566       Br567   1.915       .  S
C571        C572   1.405       .  A
C571        C576   1.398       .  A
C571        H578   1.083       .  S
C572        C573   1.416       .  A
C573        C574   1.400       .  A
C573       Br580   1.921       .  S
C574        C575   1.402       .  A
C574        H579   1.080       .  S
C575        C576   1.414       .  A
C576       Br577   1.923       .  S
C581        C582   1.407       .  A
C581        C586   1.405       .  A
C581        H808   1.083       .  S
C582        C583   1.414       .  A
C583        C584   1.400       .  A
C583       Br590   1.920       .  S
C584        C585   1.401       .  A
C584        H589   1.080       .  S
C585        C586   1.410       .  A
C586       Br587   1.916       .  S
H588        C801   1.083       .  S
C591        C592   1.415       .  A
C591        C596   1.408       .  A
C591        H598   1.076       .  S
C592        C593   1.419       .  A
C593        C594   1.393       .  A
C593       Br600   1.924       .  S
C594        C595   1.406       .  A
C594        H599   1.083       .  S
C595        C596   1.416       .  A
C596       Br597   1.919       .  S
C601        C602   1.417       .  A
C601        C606   1.391       .  A
C601        H608   1.081       .  S
C602        C603   1.422       .  A
C603        C604   1.402       .  A
C603       Br610   1.920       .  S
C604        C605   1.400       .  A
C604        H609   1.084       .  S
C605        C606   1.396       .  A
C606       Br607   1.920       .  S
C611        C612   1.406       .  A
C611        C616   1.399       .  A
C611        H618   1.084       .  S
C612        C613   1.418       .  A
C613        C614   1.401       .  A
C613       Br620   1.910       .  S
C614        C615   1.399       .  A
C614        H619   1.084       .  S
C615        C616   1.413       .  A
C621        C622   1.394       .  A
C621        C626   1.389       .  A
C621        H628   1.084       .  S
C622        C623   1.408       .  A
C623        C624   1.401       .  A
C623       Br630   1.916       .  S
C624        C625   1.403       .  A
C624        H629   1.084       .  S
C625        C626   1.414       .  A
C626       Br627   1.920       .  S
C631        C632   1.409       .  A
C631        C636   1.399       .  A
C631        H638   1.076       .  S
C632        C633   1.429       .  A
C633        C634   1.402       .  A
C633       Br640   1.926       .  S
C634        C635   1.396       .  A
C634        H639   1.084       .  S
C635        C636   1.407       .  A
C636       Br857   1.919   1_546  S
Br637       C856   1.922   1_554  S
C641        C642   1.405       .  A
C641        C646   1.391       .  A
C641        H648   1.084       .  S
C642        C643   1.408       .  A
C643        C644   1.402       .  A
C643       Br650   1.912       .  S
C644        C645   1.402       .  A
C644        H649   1.083       .  S
C645        C646   1.403       .  A
C646       Br647   1.920   1_556  S
C651        C652   1.410       .  A
C651        C656   1.405       .  A
C651        H658   1.083       .  S
C652        C653   1.415       .  A
C653        C654   1.404       .  A
C653       Br660   1.919       .  S
C654        C655   1.403       .  A
C654        H659   1.083       .  S
C655        C656   1.409       .  A
C656       Br657   1.919       .  S
C661        C662   1.523       .  S
C661        C667   1.519       .  S
C661        C665   1.546       .  S
C661        C852   1.536       .  S
C662        H669   1.087       .  S
C662        C663   1.360       .  D
C663        C664   1.543       .  S
C663        C862   1.472       .  S
C664        C668   1.548       .  S
C664        C666   1.546       .  S
C664        H670   1.109       .  S
C665        H671   1.083       .  S
C665        C666   1.374       .  D
C666        C875   1.488       .  S
C667        H672   1.081       .  S
C667        C668   1.371       .  D
C668        C680   1.505       .  S
C673        C674   1.521       .  S
C673        C679   1.526       .  S
C673        C677   1.536       .  S
C673        C822   1.531       .  S
C674        H681   1.086       .  S
C674        C675   1.358       .  D
C675        C676   1.544       .  S
C675        C845   1.478       .  S
C676        C680   1.553       .  S
C676        C678   1.552       .  S
C676        H682   1.108       .  S
C677        H683   1.084       .  S
C677        C678   1.374       .  D
C678        C832   1.491       .  S
C679        H684   1.078       .  S
C679        C680   1.367       .  D
C685        C686   1.521       .  S
C685        C691   1.536       .  S
C685        C689   1.531       .  S
C685        C812   1.543       .  S
C686        H693   1.079       .  S
C686        C687   1.372       .  D
C687        C688   1.551       .  S
C687        C699   1.512       .  S
C688        C692   1.548       .  S
C688        C690   1.554       .  S
C688        H694   1.108       .  S
C689        H695   1.087       .  S
C689        C690   1.367       .  D
C690        C805   1.486       .  S
C691        H696   1.081       .  S
C691        C692   1.369       .  D
C692        C795   1.488       .  S
C697        C698   1.530       .  S
C697        C703   1.530       .  S
C697        C701   1.532       .  S
C697        C772   1.545       .  S
C698        H705   1.068       .  S
C698        C699   1.369       .  D
C699        C700   1.552       .  S
C700        C704   1.547       .  S
C700        C702   1.557       .  S
C700        H706   1.107       .  S
C701        H707   1.086       .  S
C701        C702   1.370       .  D
C702        C785   1.495       .  S
C703        H708   1.086       .  S
C703        C704   1.368       .  D
C704        C762   1.490       .  S
O709       Ni715   1.925       .  S
O709        C730   1.270       .  A
O710        C719   1.270       .  A
O711       Ni733   1.908       .  S
C712        O729   1.279       .  A
C712        C815   1.502       .  S
O713       Ni732   1.928       .  S
O713        C719   1.270       .  A
O714       Ni732   1.906       .  S
O714        C716   1.268   1_554  A
Ni715       O720   1.903   1_556  S
C716        O726   1.275       .  A
C716        C872   1.490       .  S
O717       Ni733   1.929       .  S
O717        C723   1.278   1_554  A
O718        C723   1.274       .  A
C719        C792   1.486       .  S
O720        C722   1.268       .  A
O721       Ni732   1.920       .  S
C722        C802   1.495       .  S
C723        C855   1.471       .  S
H724        O725   0.966       .  S
O725       Ni732   1.902       .  S
Ni727       O729   1.932       .  S
O728       Ni733   1.941       .  S
C730        O731   1.267       .  A
C730        C865   1.463       .  S
O735       Ni741   1.929       .  S
O735        C756   1.270       .  A
O736        C745   1.266   1_545  A
O737       Ni741   1.911       .  S
O737       Ni753   1.914       .  S
O737        H760   0.967       .  S
C738        O755   1.277       .  A
C738        O747   1.277       .  A
C738        C775   1.471       .  S
O739       Ni758   1.929       .  S
O739        C745   1.274       .  A
O740       Ni758   1.915       .  S
O740        C742   1.270       .  A
Ni741       O744   1.914       .  S
Ni741       O746   1.909       .  S
C742        C835   1.481       .  S
O743       Ni759   1.909       .  S
O743        C749   1.271       .  A
C745        C765   1.487       .  S
O746        C748   1.271       .  A
C748        O754   1.279       .  A
C748        C782   1.497       .  S
C749        C825   1.460       .  S
O751       Ni758   1.905   1_445  S
Ni753       O757   1.889       .  S
C756        O757   1.261       .  A
C756        C842   1.458       .  S
C761        C762   1.408       .  A
C761        C766   1.401       .  A
C761        H768   1.084       .  S
C762        C763   1.411       .  A
C763        C764   1.393       .  A
C763       Br770   1.911       .  S
C764        C765   1.405       .  A
C764        H769   1.083       .  S
C765        C766   1.415       .  A
C771        C772   1.416       .  A
C771        C776   1.393       .  A
C771        H778   1.075       .  S
C772        C773   1.422       .  A
C773        C774   1.405       .  A
C773       Br780   1.922       .  S
C774        C775   1.401       .  A
C774        H779   1.082       .  S
C775        C776   1.400       .  A
C776       Br777   1.922       .  S
C781        C782   1.412       .  A
C781        C786   1.413       .  A
C781        H788   1.083       .  S
C782        C783   1.419       .  A
C783        C784   1.394       .  A
C783       Br790   1.925       .  S
C784        C785   1.402       .  A
C784        H789   1.083       .  S
C785        C786   1.410       .  A
C786       Br787   1.915       .  S
C791        C792   1.404       .  A
C791        C796   1.396       .  A
C791        H798   1.083       .  S
C792        C793   1.417       .  A
C793        C794   1.400       .  A
C793       Br800   1.922       .  S
C794        C795   1.401       .  A
C794        H799   1.081       .  S
C795        C796   1.413       .  A
C796       Br797   1.922       .  S
C801        C802   1.410       .  A
C801        C806   1.408       .  A
C802        C803   1.417       .  A
C803        C804   1.399       .  A
C803       Br810   1.919       .  S
C804        C805   1.398       .  A
C804        H809   1.081       .  S
C805        C806   1.409       .  A
C806       Br807   1.918       .  S
C811        C812   1.415       .  A
C811        C816   1.406       .  A
C811        H818   1.076       .  S
C812        C813   1.418       .  A
C813        C814   1.396       .  A
C813       Br820   1.926       .  S
C814        C815   1.409       .  A
C814        H819   1.083   1_565  S
C815        C816   1.415       .  A
C816       Br817   1.921       .  S
C821        C822   1.415       .  A
C821        C826   1.388       .  A
C821        H828   1.081       .  S
C822        C823   1.421       .  A
C823        C824   1.402       .  A
C823       Br830   1.920       .  S
C824        C825   1.400       .  A
C824        H829   1.084       .  S
C825        C826   1.396       .  A
C826       Br827   1.920       .  S
C831        C832   1.405       .  A
C831        C836   1.400       .  A
C831        H838   1.084       .  S
C832        C833   1.413       .  A
C833        C834   1.400       .  A
C833       Br840   1.910       .  S
C834        C835   1.401       .  A
C834        H839   1.084       .  S
C835        C836   1.414       .  A
C841        C842   1.392       .  A
C841        C846   1.386       .  A
C841        H848   1.085       .  S
C842        C843   1.407       .  A
C843        C844   1.402       .  A
C843       Br850   1.916       .  S
C844        C845   1.405       .  A
C844        H849   1.084       .  S
C845        C846   1.417       .  A
C846       Br847   1.921       .  S
C851        C852   1.409       .  A
C851        C856   1.399       .  A
C851        H858   1.077       .  S
C852        C853   1.429       .  A
C853        C854   1.399       .  A
C853       Br860   1.926       .  S
C854        C855   1.394       .  A
C854        H859   1.084       .  S
C855        C856   1.408       .  A
C861        C862   1.402       .  A
C861        C866   1.391       .  A
C861        H868   1.084       .  S
C862        C863   1.406       .  A
C863        C864   1.401       .  A
C863       Br870   1.915       .  S
C864        C865   1.403       .  A
C864        H869   1.083       .  S
C865        C866   1.405       .  A
C866       Br867   1.918   1_556  S
C871        C872   1.408       .  A
C871        C876   1.402       .  A
C871        H878   1.083       .  S
C872        C873   1.415       .  A
C873        C874   1.402       .  A
C873       Br880   1.920       .  S
C874        C875   1.403       .  A
C874        H879   1.083       .  S
C875        C876   1.409       .  A
C876       Br877   1.918       .  S
