geometry optimzed in LAMMPS
_audit_creation_date              2020-11-30 
_audit_creation_method            'lammps2cif' 
_symmetry_space_group_name_H-M    'P1' 
_symmetry_Int_Tables_number       1 
_symmetry_cell_setting            triclinic 
loop_ 
_symmetry_equiv_pos_as_xyz 
  x,y,z 
_cell_length_a                    23.727408098504235 
_cell_length_b                    23.87201467240702 
_cell_length_c                    23.758330488457133 
_cell_angle_alpha                 89.37087255610281 
_cell_angle_beta                  88.91010710583967 
_cell_angle_gamma                 89.11569170515449 
loop_ 
_atom_site_label 
_atom_site_type_symbol 
_atom_site_fract_x 
_atom_site_fract_y 
_atom_site_fract_z 
_atom_site_charge 
C1          C  0.87562987  0.29277639  0.50116987    -0.02810
C2          C  0.86627083  0.48203610  0.32319759    -0.02810
C3          C  0.87772360  0.48300867  0.68060428    -0.02810
C4          C  0.88000736  0.64896018  0.51181427    -0.02810
O5          O  0.91440467  0.47212721  0.41699977    -0.72100
O6          O  0.91691185  0.47355533  0.58095703    -0.72320
O7          O  0.91328014  0.39022812  0.49855881    -0.72180
O8          O  0.91727146  0.55164241  0.49904756    -0.72190
O9          O  0.82745470  0.55551156  0.50861280    -0.72150
O10         O  0.82313568  0.38981008  0.50223835    -0.72170
O11         O  0.82718002  0.47107327  0.58679392    -0.72110
O12         O  0.82367801  0.47752521  0.42178364    -0.72290
V13         V  0.91351060  0.47129735  0.49919057     1.35240
V14         V  0.82677624  0.47327790  0.50423077     1.35170
C15         C  0.86844010  0.47665968  0.39047747     0.77140
C16         C  0.87332473  0.47472727  0.61312260     0.77190
C17         C  0.86903687  0.36070072  0.50114167     0.77060
C18         C  0.87389537  0.58216687  0.50799096     0.77030
C19         C  0.34212325  0.81349986  0.51121827    -0.02810
C20         C  0.50750309  0.79252064  0.30205090    -0.02810
C21         C  0.52121306  0.81822711  0.66369082    -0.02810
C22         C  0.69514654  0.81072622  0.48534935    -0.02810
O23         O  0.50982275  0.84812729  0.39636308    -0.72100
O24         O  0.52395424  0.85752658  0.56195913    -0.72320
O25         O  0.59849894  0.85091881  0.47258840    -0.72180
O26         O  0.43594388  0.85549492  0.49013637    -0.72190
O27         O  0.43546432  0.76567434  0.49202644    -0.72150
O28         O  0.59980291  0.76201500  0.48437061    -0.72170
O29         O  0.51828310  0.76843096  0.56934624    -0.72110
O30         O  0.51428499  0.75851572  0.40440978    -0.72290
V31         V  0.51713478  0.85131713  0.47992306     1.35240
V32         V  0.51710982  0.76528461  0.48683866     1.35170
C33         C  0.51075402  0.80095456  0.37075776     0.77140
C34         C  0.52077533  0.81514777  0.59509834     0.77190
C35         C  0.62814772  0.80673286  0.48024461     0.77060
C36         C  0.40761364  0.81114048  0.49757828     0.77030
C37         C  0.52525162  0.29430300  0.85105866    -0.02810
C38         C  0.34469193  0.46955504  0.85650372    -0.02810
C39         C  0.70420124  0.45621057  0.84812431    -0.02810
C40         C  0.51726492  0.65408464  0.83092744    -0.02810
O41         O  0.52335061  0.55788858  0.88342188    -0.72100
O42         O  0.51943380  0.39254417  0.89343453    -0.72320
O43         O  0.60549453  0.47021806  0.89159248    -0.72180
O44         O  0.44184780  0.47827202  0.89035971    -0.72190
O45         O  0.43960195  0.46880545  0.80090599    -0.72150
O46         O  0.60689147  0.47096268  0.80170331    -0.72170
O47         O  0.52566598  0.38929441  0.80340523    -0.72110
O48         O  0.51873109  0.55344829  0.79380527    -0.72290
V49         V  0.52269721  0.47497467  0.88789898     1.35240
V50         V  0.52313077  0.47105434  0.80149846     1.35170
C51         C  0.51819145  0.58525752  0.83680092     0.77140
C52         C  0.52144900  0.36181745  0.84946734     0.77190
C53         C  0.63576593  0.46694676  0.84682140     0.77060
C54         C  0.41170944  0.47233954  0.84753511     0.77030
C55         C  0.36673646  0.97940912  0.80747482    -0.02810
C56         C  0.36287870  0.79035925  0.98938359    -0.02810
C57         C  0.37232012  0.15052854  0.00077091    -0.02810
C58         C  0.37248407  0.97080000  0.17310015    -0.02810
O59         O  0.40925674  0.96170304  0.07134029    -0.72100
O60         O  0.41293887  0.97598251  0.90571133    -0.72320
O61         O  0.41280637  0.05110753  0.99442261    -0.72180
O62         O  0.40974445  0.88720835  0.98319506    -0.72190
O63         O  0.32010799  0.89009555  0.99466624    -0.72150
O64         O  0.32304007  0.05550730  0.98975147    -0.72170
O65         O  0.32261731  0.97122374  0.90775760    -0.72110
O66         O  0.32045658  0.97605812  0.07594603    -0.72290
V67         V  0.40942468  0.96918745  0.98894205     1.35240
V68         V  0.32298985  0.97285613  0.99152641     1.35170
C69         C  0.36624797  0.97078349  0.10362652     0.77140
C70         C  0.36787718  0.97524534  0.87695419     0.77190
C71         C  0.36882093  0.08266549  0.99394610     0.77060
C72         C  0.36472644  0.85908908  0.98916615     0.77030
C73         C  0.02733520  0.62558213  0.81319982    -0.02810
C74         C  0.83725346  0.61334510  0.99630425    -0.02810
C75         C  0.20802611  0.63072648  0.00705465    -0.02810
C76         C  0.02220972  0.62408755  0.17633983    -0.02810
O77         O  0.02511655  0.57838776  0.07815218    -0.72100
O78         O  0.01437648  0.57999819  0.91221092    -0.72320
O79         O  0.10830747  0.58216492  0.98933852    -0.72180
O80         O  0.94053121  0.57606510  0.00086830    -0.72190
O81         O  0.93445358  0.66470377  0.99077015    -0.72150
O82         O  0.10341372  0.67067912  0.00083887    -0.72170
O83         O  0.02415431  0.66861598  0.91211939    -0.72110
O84         O  0.01260010  0.66735680  0.07789506    -0.72290
V85         V  0.02271889  0.58079829  0.99501583     1.35240
V86         V  0.01869822  0.66640913  0.99515797     1.35170
C87         C  0.01745471  0.62248989  0.10776290     0.77140
C88         C  0.01943667  0.62429111  0.88225041     0.77190
C89         C  0.13668891  0.62712494  0.99794036     0.77060
C90         C  0.90743806  0.61822465  0.99524575     0.77030
C91         C  0.66567910  0.77373830  0.98764856    -0.02810
C92         C  0.66653214  0.96058743  0.80435662    -0.02810
C93         C  0.67399234  0.14050139  0.99842558    -0.02810
C94         C  0.66781228  0.94147073  0.17508279    -0.02810
O95         O  0.70808045  0.94953869  0.07326470    -0.72100
O96         O  0.70722317  0.95681742  0.90575892    -0.72320
O97         O  0.71130832  0.03749721  0.99196166    -0.72180
O98         O  0.70735847  0.87170153  0.98922059    -0.72190
O99         O  0.61690263  0.87297988  0.99271393    -0.72150
O100        O  0.62119267  0.04229408  0.99171120    -0.72170
O101        O  0.61711412  0.95808749  0.90681151    -0.72110
O102        O  0.61808823  0.95320139  0.07669683    -0.72290
V103        V  0.70642094  0.95417832  0.98988365     1.35240
V104        V  0.61988178  0.95703905  0.99187143     1.35170
C105        C  0.66367989  0.94796990  0.10509621     0.77140
C106        C  0.66226954  0.95761910  0.87563398     0.77190
C107        C  0.66773544  0.07023386  0.99325298     0.77060
C108        C  0.66237526  0.84265035  0.99236549     0.77030
C109        C  0.33158215  0.46669946  0.15510429    -0.02810
C110        C  0.52775184  0.27092273  0.15603816    -0.02810
C111        C  0.52096528  0.63667796  0.14631916    -0.02810
C112        C  0.70257490  0.45750075  0.16300907    -0.02810
O113        O  0.51530309  0.53804443  0.19398923    -0.72100
O114        O  0.51934264  0.37052068  0.20017910    -0.72320
O115        O  0.59985884  0.45560355  0.20361195    -0.72180
O116        O  0.43212334  0.45590100  0.19708785    -0.72190
O117        O  0.43462770  0.45413139  0.10732337    -0.72150
O118        O  0.60414932  0.44713913  0.11485424    -0.72170
O119        O  0.51910774  0.36918085  0.11000032    -0.72110
O120        O  0.52251505  0.53531258  0.10422288    -0.72290
V121        V  0.51627152  0.45453227  0.19699120     1.35240
V122        V  0.51996628  0.45174307  0.11083334     1.35170
C123        C  0.51866019  0.56675532  0.14760529     0.77140
C124        C  0.52227846  0.34016135  0.15518935     0.77190
C125        C  0.63239009  0.45224499  0.16011901     0.77060
C126        C  0.40270371  0.45793200  0.15203889     0.77030
C127        C  0.83453444  0.31259891  0.01020704    -0.02810
C128        C  0.00547168  0.31003550  0.82695096    -0.02810
C129        C  0.19659643  0.31824887  0.01212431    -0.02810
C130        C  0.00423500  0.31060688  0.19214433    -0.02810
O131        O  0.01659378  0.26743155  0.09255286    -0.72100
O132        O  0.01203323  0.26480645  0.92583352    -0.72320
O133        O  0.09933171  0.27099325  0.00519708    -0.72180
O134        O  0.93226556  0.26449092  0.01220016    -0.72190
O135        O  0.93121361  0.35331932  0.99989098    -0.72150
O136        O  0.09589018  0.36015549  0.00817727    -0.72170
O137        O  0.01439849  0.35388737  0.92461965    -0.72110
O138        O  0.00867506  0.35688132  0.09068307    -0.72290
V139        V  0.01563693  0.26842120  0.00887734     1.35240
V140        V  0.01273801  0.35429737  0.00643313     1.35170
C141        C  0.01047086  0.31225745  0.12176471     0.77140
C142        C  0.01083136  0.30962591  0.89563613     0.77190
C143        C  0.12760952  0.31633068  0.00571996     0.77060
C144        C  0.90243136  0.30937102  0.00614653     0.77030
C145        C  0.83527367  0.95939393  0.64484872    -0.02810
C146        C  0.02200832  0.78639979  0.66456527    -0.01850
C147        C  0.02427246  0.15232708  0.65621987    -0.02810
C148        C  0.20855004  0.98052113  0.64400795    -0.02810
O149        O  0.10795443  0.96303845  0.60378911    -0.72100
O150        O  0.93990716  0.96664489  0.60365072    -0.72320
O151        O  0.02581091  0.05218491  0.60576075    -0.72180
O152        O  0.02363260  0.88290329  0.60895319    -0.72190
O153        O  0.02700422  0.88656304  0.69873687    -0.72150
O154        O  0.01758309  0.05098853  0.69554508    -0.72170
O155        O  0.93668627  0.96054469  0.69320382    -0.72110
O156        O  0.10727102  0.97384690  0.69280935    -0.72290
V157        V  0.02411065  0.96668001  0.60716662     1.35240
V158        V  0.02212825  0.96804129  0.69330297     1.35170
C159        C  0.13806903  0.97098588  0.64685666     0.77140
C160        C  0.90746759  0.96048759  0.64731683     0.77190
C161        C  0.02342604  0.08185653  0.65142739     0.77060
C162        C  0.02405977  0.85507856  0.65586675     0.77030
C163        C  0.17907335  0.27638823  0.50777665    -0.02810
C164        C  0.16572326  0.46400184  0.31795568    -0.02810
C165        C  0.16367194  0.44953360  0.68795374    -0.02810
C166        C  0.16747585  0.64559712  0.51151824    -0.02810
O167        O  0.12000910  0.46390435  0.41971470    -0.72100
O168        O  0.12486750  0.45982499  0.58648833    -0.72320
O169        O  0.12304642  0.54590621  0.50423758    -0.72180
O170        O  0.12567515  0.37627005  0.50421948    -0.72190
O171        O  0.21552290  0.37817228  0.50085832    -0.72150
O172        O  0.21334377  0.54508126  0.50443263    -0.72170
O173        O  0.21389541  0.45744910  0.58651319    -0.72110
O174        O  0.21017954  0.46331449  0.41769759    -0.72290
V175        V  0.12513097  0.46141235  0.50364314     1.35240
V176        V  0.21145968  0.46129342  0.50193717     1.35170
C177        C  0.16460823  0.46475506  0.38843698     0.77140
C178        C  0.16860918  0.45440378  0.61695935     0.77190
C179        C  0.16824543  0.57562248  0.50579078     0.77060
C180        C  0.17189659  0.34683938  0.50400054     0.77030
C181        C  0.33948821  0.11661588  0.48135276    -0.02810
C182        C  0.53058760  0.11179733  0.31599146    -0.02810
C183        C  0.51891255  0.11859090  0.67698279    -0.02810
C184        C  0.70866971  0.11395457  0.48415955    -0.02810
O185        O  0.52524630  0.15661508  0.41218063    -0.72100
O186        O  0.51965313  0.16318440  0.57750360    -0.72320
O187        O  0.60711824  0.15956552  0.49265367    -0.72180
O188        O  0.43939689  0.15854717  0.48920844    -0.72190
O189        O  0.43961038  0.07020191  0.49778524    -0.72150
O190        O  0.60815160  0.07086805  0.50288478    -0.72170
O191        O  0.51871773  0.07323899  0.58165287    -0.72110
O192        O  0.52622658  0.06707762  0.41634245    -0.72290
V193        V  0.52279326  0.15781535  0.49397159     1.35240
V194        V  0.52349635  0.07201039  0.49937879     1.35170
C195        C  0.52582737  0.11088206  0.38471169     0.77140
C196        C  0.51737161  0.11903720  0.60886554     0.77190
C197        C  0.63821787  0.11505517  0.49588096     0.77060
C198        C  0.40932828  0.11432222  0.49030683     0.77030
C199        C  0.03463493  0.77114655  0.34380652    -0.02810
C200        C  0.83265341  0.95307995  0.33091704    -0.02810
C201        C  0.20026584  0.94337797  0.35226711    -0.02810
C202        C  0.02961604  0.14364915  0.35249335    -0.02810
O203        O  0.01116498  0.87014862  0.39015272    -0.72100
O204        O  0.01221918  0.03914340  0.39419130    -0.72320
O205        O  0.92738839  0.95383010  0.38663944    -0.72180
O206        O  0.09676011  0.95484972  0.39561986    -0.72190
O207        O  0.10246409  0.95137015  0.30642548    -0.72150
O208        O  0.93618863  0.95799122  0.29662323    -0.72170
O209        O  0.02196781  0.04228500  0.30505258    -0.72110
O210        O  0.02094949  0.87255527  0.30073564    -0.72290
V211        V  0.01200955  0.95457126  0.38998152     1.35240
V212        V  0.01952915  0.95667884  0.30400578     1.35170
C213        C  0.02025854  0.84102893  0.34543943     0.77140
C214        C  0.01955790  0.07177609  0.35102051     0.77190
C215        C  0.90192185  0.95439104  0.33915426     0.77060
C216        C  0.12992757  0.95095046  0.35199666     0.77030
C217        C  0.74450103  0.09908442  0.37464436    -0.09480
C218        C  0.71954401  0.08134476  0.42709591     0.06720
C219        C  0.71678561  0.02521409  0.43181130    -0.03250
C220        C  0.76543502  0.99473613  0.41417679    -0.07700
C221        C  0.79827569  0.00700549  0.36257848     0.05830
C222        C  0.78115351  0.06242406  0.34173675    -0.02720
Br223      Br  0.80217661  0.09583775  0.27184170    -0.02420
H224        H  0.74108669  0.14263402  0.36225134     0.09740
H225        H  0.77604763  0.95884774  0.44031910     0.07760
Br226      Br  0.64127847  0.00950092  0.40969037    -0.02840
C227        C  0.29530235  0.97960140  0.39668463    -0.09480
C228        C  0.24033926  0.99233371  0.37686546     0.06720
C229        C  0.23156796  0.04935437  0.37356836    -0.03250
C230        C  0.27210578  0.08858175  0.39164129    -0.07700
C231        C  0.31692832  0.07460548  0.43082119     0.05830
C232        C  0.32975561  0.01596539  0.42712048    -0.02720
Br233      Br  0.39771308  0.97818615  0.44911452    -0.02420
H234        H  0.31123888  0.93800031  0.39164992     0.09740
H235        H  0.26772787  0.12881363  0.37164504     0.07760
Br236      Br  0.16358848  0.07294902  0.34628952    -0.02840
C237        C  0.12895387  0.70172649  0.35404565    -0.09480
C238        C  0.09621971  0.75281564  0.36661548     0.06720
C239        C  0.11005455  0.77135273  0.41841161    -0.03250
C240        C  0.12584965  0.73387880  0.45902149    -0.07700
C241        C  0.14565816  0.67864734  0.45443646     0.05830
C242        C  0.16011988  0.67071512  0.39734332    -0.02720
Br243      Br  0.23893748  0.66107625  0.38711731    -0.02420
H244        H  0.13603487  0.68894334  0.31126369     0.09740
H245        H  0.11800830  0.75051610  0.49572386     0.07760
Br246      Br  0.10753688  0.84508074  0.44209218    -0.02840
C247        C  0.27890991  0.19725138  0.43991230    -0.09480
C248        C  0.32372506  0.18175958  0.47467878     0.06720
C249        C  0.33219230  0.22420445  0.51802839    -0.03250
C250        C  0.28628789  0.26118536  0.53209092    -0.07700
C251        C  0.24269130  0.26694180  0.49342149     0.05830
C252        C  0.26110300  0.25203316  0.43945800    -0.02720
Br253      Br  0.31368652  0.30211192  0.40295574    -0.02420
H254        H  0.24305474  0.17059301  0.44388314     0.09740
H255        H  0.28677042  0.28755209  0.56884225     0.07760
Br256      Br  0.40277188  0.25848838  0.53596014    -0.02840
C257        C  0.12154112  0.18438918  0.47900040    -0.09480
C258        C  0.14618476  0.23709647  0.46336803     0.06720
C259        C  0.14512342  0.24672602  0.40468158    -0.03250
C260        C  0.11705644  0.21084791  0.36733102    -0.07700
C261        C  0.08618713  0.16142675  0.38408312     0.05830
C262        C  0.09142385  0.14882959  0.44272405    -0.02720
Br263      Br  0.03165153  0.11018585  0.48261008    -0.02420
H264        H  0.11484975  0.17391471  0.52163930     0.09740
H265        H  0.11136375  0.23107514  0.32785248     0.07760
Br266      Br  0.17512893  0.31283371  0.37260883    -0.02840
C267        C  0.24222528  0.08154890  0.52103649    -0.09480
C268        C  0.29822902  0.09784894  0.53167486     0.06720
C269        C  0.30789480  0.10215736  0.58938671    -0.03250
C270        C  0.27561181  0.06760445  0.62849085    -0.07700
C271        C  0.22684901  0.03804795  0.61384408     0.05830
C272        C  0.20791825  0.05418912  0.56068732    -0.02720
Br273      Br  0.13197497  0.05879814  0.54455008    -0.02420
H274        H  0.22247556  0.09110209  0.48198953     0.09740
H275        H  0.29544781  0.05247525  0.66476955     0.07760
Br276      Br  0.36803635  0.14876871  0.61205476    -0.02840
C277        C  0.13917976  0.15852923  0.62085069    -0.09480
C278        C  0.08459190  0.18049038  0.63729416     0.06720
C279        C  0.09201380  0.23810328  0.64166653    -0.03250
C280        C  0.11008522  0.26325966  0.59071028    -0.07700
C281        C  0.16314770  0.25004090  0.56910615     0.05830
C282        C  0.18155508  0.19615170  0.59360406    -0.02720
Br283      Br  0.24539887  0.20250085  0.63983359    -0.02420
H284        H  0.15175721  0.11897533  0.63935504     0.09740
H285        H  0.07890594  0.27654791  0.56092303     0.07760
Br286      Br  0.13893398  0.25494111  0.70464114    -0.02840
C287        C  0.07738851  0.68698046  0.55584508    -0.09480
C288        C  0.13063299  0.66627549  0.56532290     0.06720
C289        C  0.15125072  0.68245636  0.61949359    -0.03250
C290        C  0.11937005  0.72087954  0.65364786    -0.07700
C291        C  0.07169040  0.75310882  0.63230655     0.05830
C292        C  0.05880326  0.73865057  0.57746993    -0.02720
Br293      Br  0.02124199  0.79305984  0.53067560    -0.02420
H294        H  0.06190786  0.67346892  0.51862400     0.09740
H295        H  0.14007345  0.72852360  0.69185622     0.07760
Br296      Br  0.22117178  0.65222870  0.64994230    -0.02840
C297        C  0.73606344  0.07802194  0.58503598    -0.09480
C298        C  0.75088214  0.07972913  0.52805744     0.06720
C299        C  0.80785475  0.05383419  0.51761819    -0.03250
C300        C  0.83521856  0.02094168  0.55861984    -0.07700
C301        C  0.81701610  0.01673807  0.61450112     0.05830
C302        C  0.77145711  0.05461749  0.62776452    -0.02720
Br303      Br  0.77953237  0.10613350  0.68638360    -0.02420
H304        H  0.69799005  0.09925949  0.59571735     0.09740
H305        H  0.86762152  0.99128410  0.54578726     0.07760
Br306      Br  0.86301002  0.04520484  0.45627928    -0.02840
C307        C  0.06662839  0.22770773  0.21709178    -0.09480
C308        C  0.01195908  0.24871605  0.21023050     0.06720
C309        C  0.97005206  0.20838542  0.21816787    -0.03250
C310        C  0.98015047  0.16417304  0.25694488    -0.07700
C311        C  0.03084755  0.16165580  0.28727107     0.05830
C312        C  0.07666315  0.18235721  0.25300024    -0.02720
Br313      Br  0.15313000  0.15697052  0.24690692    -0.02420
H314        H  0.10174162  0.24887155  0.19730238     0.09740
H315        H  0.95094735  0.13020148  0.26021805     0.07760
Br316      Br  0.91387294  0.19928270  0.16279113    -0.02840
C317        C  0.08823509  0.38479675  0.31690873    -0.09480
C318        C  0.13495248  0.40977725  0.29104123     0.06720
C319        C  0.13831623  0.39641138  0.23203423    -0.03250
C320        C  0.09955045  0.36449555  0.20153026    -0.07700
C321        C  0.05197540  0.34290143  0.22696381     0.05830
C322        C  0.05119711  0.35043963  0.28683849    -0.02720
Br323      Br  0.00990061  0.30748241  0.33434204    -0.02420
H324        H  0.07991820  0.39179467  0.36114622     0.09740
H325        H  0.10476263  0.35961306  0.15641834     0.07760
Br326      Br  0.17522518  0.43959836  0.18315288    -0.02840
C327        C  0.95673647  0.22173530  0.79329288    -0.09480
C328        C  0.00512004  0.24682711  0.80924648     0.06720
C329        C  0.05341166  0.21173681  0.80153733    -0.03250
C330        C  0.05561041  0.17184219  0.75781895    -0.07700
C331        C  0.01078490  0.16846201  0.72024303     0.05830
C332        C  0.95769700  0.18859061  0.74505669    -0.02720
Br333      Br  0.88219438  0.18235344  0.72292415    -0.02420
H334        H  0.91783532  0.23295376  0.81525286     0.09740
H335        H  0.09425506  0.14820555  0.74996706     0.07760
Br336      Br  0.10878734  0.20521547  0.85695599    -0.02840
C337        C  0.04698483  0.34434176  0.73098212    -0.09480
C338        C  0.05623062  0.33482601  0.78918692     0.06720
C339        C  0.11022997  0.35019625  0.80602687    -0.03250
C340        C  0.15167213  0.36874630  0.76617217    -0.07700
C341        C  0.13714624  0.39185276  0.71208153     0.05830
C342        C  0.08433248  0.37364268  0.69490600    -0.02720
Br343      Br  0.06773168  0.37171679  0.61932231    -0.02420
H344        H  0.00790751  0.33226144  0.71369336     0.09740
H345        H  0.19423256  0.36984475  0.78089406     0.07760
Br346      Br  0.12393931  0.36688849  0.88123619    -0.02840
C347        C  0.76517693  0.31394989  0.09826599    -0.09480
C348        C  0.81487297  0.33390577  0.07199568     0.06720
C349        C  0.83671708  0.37988433  0.10269867    -0.03250
C350        C  0.80137062  0.40975268  0.14136487    -0.07700
C351        C  0.74201174  0.40496226  0.14197636     0.05830
C352        C  0.72944853  0.34829442  0.13271859    -0.02720
Br353      Br  0.68936365  0.30695297  0.18703398    -0.02420
H354        H  0.75934077  0.26974681  0.10044790     0.09740
H355        H  0.81901751  0.44181647  0.16506708     0.07760
Br356      Br  0.89900225  0.42346291  0.08032857    -0.02840
C357        C  0.57386469  0.25226006  0.25123866    -0.09480
C358        C  0.52379182  0.25464700  0.21940638     0.06720
C359        C  0.47524201  0.23533625  0.25024865    -0.03250
C360        C  0.48491148  0.20603658  0.29930304    -0.07700
C361        C  0.53470953  0.17504902  0.30213044     0.05830
C362        C  0.58162344  0.20814755  0.29032143    -0.02720
Br363      Br  0.64444196  0.20840034  0.33952708    -0.02420
H364        H  0.60492228  0.28320460  0.24588846     0.09740
H365        H  0.45274538  0.20267162  0.33066343     0.07760
Br366      Br  0.39644022  0.23486885  0.23494949    -0.02840
C367        C  0.25648232  0.40812852  0.28285537    -0.09480
C368        C  0.23062644  0.45853549  0.30137921     0.06720
C369        C  0.26967734  0.50281136  0.30145049    -0.03250
C370        C  0.30795919  0.50753560  0.25538927    -0.07700
C371        C  0.31656253  0.46150781  0.21994609     0.05830
C372        C  0.30493012  0.41079142  0.24803240    -0.02720
Br373      Br  0.36702602  0.36499102  0.26951052    -0.02420
H374        H  0.24039977  0.36775264  0.29474142     0.09740
H375        H  0.32894844  0.54651904  0.24681695     0.07760
Br376      Br  0.29498602  0.53504714  0.36958835    -0.02840
C377        C  0.20444930  0.41146398  0.06001468    -0.09480
C378        C  0.20340729  0.35421976  0.06826710     0.06720
C379        C  0.22934879  0.33669126  0.11942471    -0.03250
C380        C  0.27495366  0.36797248  0.14145507    -0.07700
C381        C  0.29030170  0.42301695  0.12155898     0.05830
C382        C  0.25106932  0.44185450  0.07875397    -0.02720
Br383      Br  0.26813241  0.49172479  0.02130819    -0.02420
H384        H  0.17971371  0.42812235  0.02549395     0.09740
H385        H  0.29729443  0.34673154  0.17414040     0.07760
Br386      Br  0.21264441  0.26631796  0.15506805    -0.02840
C387        C  0.75748540  0.88457191  0.20928588    -0.09480
C388        C  0.73374626  0.93447254  0.18748460     0.06720
C389        C  0.77664448  0.97480480  0.17892360    -0.03250
C390        C  0.81452385  0.98314138  0.22383904    -0.07700
C391        C  0.82195221  0.94133226  0.26502691     0.05830
C392        C  0.80442546  0.88769705  0.24437023    -0.02720
Br393      Br  0.84707628  0.82054611  0.25206575    -0.02420
H394        H  0.73970861  0.84414356  0.20064042     0.09740
H395        H  0.84890580  0.01193421  0.21801189     0.07760
Br396      Br  0.82182182  0.96390514  0.11187190    -0.02840
C397        C  0.58720771  0.98529923  0.23891332    -0.09480
C398        C  0.63783636  0.99486681  0.20871394     0.06720
C399        C  0.65823219  0.05028990  0.22031308    -0.03250
C400        C  0.62898737  0.08804180  0.25855496    -0.07700
C401        C  0.58144150  0.07217977  0.29283439     0.05830
C402        C  0.56756045  0.01577225  0.28662133    -0.02720
Br403      Br  0.50880715  0.98548583  0.33497210    -0.02420
H404        H  0.56418084  0.95095622  0.22677968     0.09740
H405        H  0.64329150  0.13024265  0.25804055     0.07760
Br406      Br  0.71584534  0.08505112  0.17670851    -0.02840
C407        C  0.76051039  0.18482055  0.94616256    -0.09480
C408        C  0.74032144  0.15392089  0.99169599     0.06720
C409        C  0.77979727  0.15887411  0.03657921    -0.03250
C410        C  0.81674762  0.20615162  0.03874943    -0.07700
C411        C  0.80958138  0.25199338  0.00082432     0.05830
C412        C  0.77192599  0.24009970  0.95706868    -0.02720
Br413      Br  0.70584201  0.28368392  0.95142477    -0.02420
H414        H  0.79628126  0.16419725  0.92555291     0.09740
H415        H  0.84739290  0.20855364  0.07124471     0.07760
Br416      Br  0.80616730  0.09428248  0.07356146    -0.02840
C417        C  0.66515260  0.22751182  0.06463275    -0.09480
C418        C  0.65686775  0.16946760  0.05831860     0.06720
C419        C  0.62486884  0.14891094  0.10378864    -0.03250
C420        C  0.60216714  0.18609419  0.14597471    -0.07700
C421        C  0.58663797  0.24304742  0.13150734     0.05830
C422        C  0.62381795  0.26409855  0.08907554    -0.02720
Br423      Br  0.62739109  0.33980431  0.06276346    -0.02420
H424        H  0.69979570  0.24470750  0.04462528     0.09740
H425        H  0.58404914  0.16697614  0.18313595     0.07760
Br426      Br  0.60625792  0.07335850  0.10750615    -0.02840
C427        C  0.76897159  0.00628505  0.78886009    -0.09480
C428        C  0.73110704  0.96102482  0.79318484     0.06720
C429        C  0.75779118  0.91056749  0.78203160    -0.03250
C430        C  0.78021575  0.91177927  0.72830910    -0.07700
C431        C  0.81280694  0.95719874  0.70840708     0.05830
C432        C  0.81539737  0.00081253  0.74956385    -0.02720
Br433      Br  0.88041834  0.04507802  0.76185852    -0.02420
H434        H  0.76257472  0.04380111  0.81331991     0.09740
H435        H  0.75079991  0.89420997  0.70107343     0.07760
Br436      Br  0.80818368  0.88530570  0.83942598    -0.02840
C437        C  0.54578682  0.02352944  0.72260367    -0.09480
C438        C  0.56477035  0.07208681  0.69368577     0.06720
C439        C  0.62362854  0.08305740  0.69873952    -0.03250
C440        C  0.65641637  0.05115701  0.73885015    -0.07700
C441        C  0.63239588  0.00931576  0.77577071     0.05830
C442        C  0.57353763  0.00116612  0.76898940    -0.02720
Br443      Br  0.52754284  0.96277043  0.82382728    -0.02420
H444        H  0.50358540  0.00987531  0.71826229     0.09740
H445        H  0.69794510  0.06418991  0.74544997     0.07760
Br446      Br  0.65376181  0.15432374  0.67397034    -0.02840
C447        C  0.63370410  0.74852422  0.09536453    -0.09480
C448        C  0.64409622  0.73238680  0.03989037     0.06720
C449        C  0.63699197  0.67293013  0.03304814    -0.03250
C450        C  0.60270600  0.63999248  0.07021470    -0.07700
C451        C  0.58400758  0.65811379  0.12342040     0.05830
C452        C  0.61267933  0.71003295  0.13779565    -0.02720
Br453      Br  0.66567758  0.71368709  0.19810275    -0.02420
H454        H  0.65443592  0.78608129  0.10716710     0.09740
H455        H  0.58486606  0.60267618  0.05410516     0.07760
Br456      Br  0.66199373  0.63639239  0.96707073    -0.02840
C457        C  0.07916150  0.71431254  0.19945718    -0.09480
C458        C  0.02832627  0.68790349  0.18964227     0.06720
C459        C  0.98135708  0.72232911  0.20332970    -0.03250
C460        C  0.98397877  0.75479763  0.25186564    -0.07700
C461        C  0.03457325  0.75723862  0.28065020     0.05830
C462        C  0.08292408  0.75081551  0.24510670    -0.02720
Br463      Br  0.14902873  0.79580548  0.25148338    -0.02420
H464        H  0.11242182  0.71052564  0.16904458     0.09740
H465        H  0.94843399  0.77872900  0.26673843     0.07760
Br466      Br  0.92918662  0.74450556  0.14654025    -0.02840
C467        C  0.08169007  0.50351086  0.25645320    -0.09480
C468        C  0.13442451  0.51626115  0.28235680     0.06720
C469        C  0.15715227  0.56735505  0.25542789    -0.03250
C470        C  0.12698198  0.59930307  0.21370659    -0.07700
C471        C  0.07474610  0.58352827  0.19234669     0.05830
C472        C  0.06415213  0.52742484  0.20508874    -0.02720
Br473      Br  0.03627602  0.48048583  0.14895146    -0.02420
H474        H  0.05508635  0.47033054  0.27104381     0.09740
H475        H  0.14651843  0.63547378  0.19622791     0.07760
Br476      Br  0.22274939  0.60969976  0.26848617    -0.02840
C477        C  0.29259870  0.61103849  0.07698644    -0.09480
C478        C  0.23489716  0.60406658  0.06491516     0.06720
C479        C  0.21139106  0.56793601  0.10568093    -0.03250
C480        C  0.24652827  0.54054942  0.14697904    -0.07700
C481        C  0.30494313  0.52737807  0.13627750     0.05830
C482        C  0.32809223  0.56669263  0.09871856    -0.02720
Br483      Br  0.40456201  0.56157516  0.07476763    -0.02420
H484        H  0.30949100  0.65023516  0.06759663     0.09740
H485        H  0.22798935  0.52555189  0.18444407     0.07760
Br486      Br  0.14325253  0.53488894  0.09022974    -0.02840
C487        C  0.81746656  0.70657336  0.94975943    -0.09480
C488        C  0.81525685  0.67532577  0.99884088     0.06720
C489        C  0.79057927  0.70555343  0.04501699    -0.03250
C490        C  0.75712282  0.75278473  0.03380144    -0.07700
C491        C  0.73137198  0.75745249  0.98118670     0.05830
C492        C  0.77003668  0.73939219  0.93561757    -0.02720
Br493      Br  0.77344258  0.74158418  0.85397577    -0.02420
H494        H  0.84823324  0.69394653  0.91847997     0.09740
H495        H  0.74094184  0.77700011  0.06887774     0.07760
Br496      Br  0.79585185  0.69148327  0.12351111    -0.02840
C497        C  0.74397627  0.56585921  0.03735794    -0.09480
C498        C  0.80069882  0.58040982  0.04548835     0.06720
C499        C  0.81820939  0.56529357  0.09864327    -0.03250
C500        C  0.78282779  0.53564067  0.13933224    -0.07700
C501        C  0.72803106  0.51259738  0.12734146     0.05830
C502        C  0.70787231  0.53511662  0.07475795    -0.02720
Br503      Br  0.64418763  0.51096245  0.03289802    -0.02420
H504        H  0.73142845  0.56518552  0.99532932     0.09740
H505        H  0.80007517  0.52849635  0.18007064     0.07760
Br506      Br  0.88929068  0.59301853  0.11232450    -0.02840
C507        C  0.98373505  0.72291749  0.80234258    -0.09480
C508        C  0.03260209  0.68886624  0.80071550     0.06720
C509        C  0.08188409  0.71961240  0.78918625    -0.03250
C510        C  0.07633093  0.76847822  0.75630411    -0.07700
C511        C  0.02559723  0.77769997  0.72888329     0.05830
C512        C  0.97850442  0.76596076  0.76274816    -0.02720
Br513      Br  0.91615180  0.81630502  0.76537196    -0.02420
H514        H  0.95290509  0.71828797  0.83542471     0.09740
H515        H  0.11243403  0.79198809  0.74421431     0.07760
Br516      Br  0.15392509  0.70180337  0.81889163    -0.02840
C517        C  0.11663394  0.59837771  0.74594257    -0.09480
C518        C  0.08183892  0.58785020  0.79487859     0.06720
C519        C  0.07778165  0.53065142  0.80660550    -0.03250
C520        C  0.08586658  0.48935422  0.76436550    -0.07700
C521        C  0.12246702  0.49819864  0.71622161     0.05830
C522        C  0.13379893  0.55460243  0.70770896    -0.02720
Br523      Br  0.12231166  0.56666346  0.63244240    -0.02420
H524        H  0.11615450  0.63962615  0.72810524     0.09740
H525        H  0.07570949  0.44809662  0.77792935     0.07760
Br526      Br  0.09751223  0.50975738  0.88073706    -0.02840
C527        C  0.26119499  0.97998245  0.19668794    -0.09480
C528        C  0.31720188  0.96398667  0.20933398     0.06720
C529        C  0.32258503  0.94162869  0.26375336    -0.03250
C530        C  0.27942964  0.91275573  0.28627959    -0.07700
C531        C  0.22607240  0.93768874  0.28915220     0.05830
C532        C  0.21670090  0.97275704  0.23867149    -0.02720
Br533      Br  0.14850322  0.01047353  0.21699120    -0.02420
H534        H  0.25280757  0.00214400  0.15772914     0.09740
H535        H  0.29691357  0.88348229  0.31358460     0.07760
Br536      Br  0.38645435  0.94201009  0.31138658    -0.02840
C537        C  0.38351680  0.05413864  0.25204260    -0.09480
C538        C  0.40321966  0.02510192  0.20227515     0.06720
C539        C  0.45606091  0.04522331  0.18570137    -0.03250
C540        C  0.49055636  0.07898104  0.21881017    -0.07700
C541        C  0.47856292  0.09158439  0.27569992     0.05830
C542        C  0.42080961  0.08374098  0.28854836    -0.02720
Br543      Br  0.38959962  0.12347205  0.34785971    -0.02420
H544        H  0.33988150  0.05147036  0.26558267     0.09740
H545        H  0.53085652  0.09033911  0.20139511     0.07760
Br546      Br  0.48101992  0.03427604  0.11503863    -0.02840
C547        C  0.26052115  0.16356918  0.99957867    -0.09480
C548        C  0.31651950  0.18381480  0.00141423     0.06720
C549        C  0.32052345  0.24237608  0.00571486    -0.03250
C550        C  0.28006240  0.26574986  0.03669549    -0.07700
C551        C  0.22494981  0.25907452  0.02144256     0.05830
C552        C  0.21398233  0.20221120  0.00384593    -0.02720
Br553      Br  0.14318286  0.16564285  0.99662246    -0.02420
H554        H  0.25172478  0.12017673  0.99305312     0.09740
H555        H  0.29566792  0.29831004  0.06075953     0.07760
Br556      Br  0.38326186  0.29309554  0.99558275    -0.02840
C557        C  0.38533628  0.20978246  0.09565192    -0.09480
C558        C  0.40394719  0.16561449  0.05857697     0.06720
C559        C  0.46063462  0.15011430  0.06910823    -0.03250
C560        C  0.48966063  0.17765353  0.11061060    -0.07700
C561        C  0.48076028  0.23517500  0.12405942     0.05830
C562        C  0.42456414  0.25094414  0.11381961    -0.02720
Br563      Br  0.39858423  0.32469295  0.12848145    -0.02420
H564        H  0.34135167  0.21711095  0.10458055     0.09740
H565        H  0.51589177  0.15008207  0.13245613     0.07760
Br566      Br  0.51208920  0.10949413  0.01956034    -0.02840
C567        C  0.27079034  0.77346048  0.04833414    -0.09480
C568        C  0.29851391  0.77787465  0.99640229     0.06720
C569        C  0.26117209  0.77000400  0.95239317    -0.03250
C570        C  0.22374008  0.72495262  0.95747515    -0.07700
C571        C  0.22030334  0.69486378  0.00853150     0.05830
C572        C  0.23492067  0.72748749  0.05655403    -0.02720
Br573      Br  0.21676062  0.71119212  0.13341772    -0.02420
H574        H  0.28480622  0.79743076  0.08380674     0.09740
H575        H  0.19957639  0.71238736  0.92217089     0.07760
Br576      Br  0.24163637  0.83149459  0.90332885    -0.02840
C577        C  0.38034705  0.72502375  0.08644434    -0.09480
C578        C  0.40046212  0.75969630  0.04065077     0.06720
C579        C  0.45992632  0.75849277  0.04119250    -0.03250
C580        C  0.49182233  0.71459658  0.06826417    -0.07700
C581        C  0.47286871  0.67426760  0.10913766     0.05830
C582        C  0.41302678  0.68527572  0.11940797    -0.02720
Br583      Br  0.36523671  0.65266536  0.17680358    -0.02420
H584        H  0.33842693  0.72824882  0.10120437     0.09740
H585        H  0.53467414  0.72269851  0.06724318     0.07760
Br586      Br  0.50107387  0.82668177  0.02978563    -0.02840
C587        C  0.28680401  0.92346375  0.76359735    -0.09480
C588        C  0.30426192  0.97232236  0.79008383     0.06720
C589        C  0.26282208  0.01630417  0.79092341    -0.03250
C590        C  0.22623475  0.02184858  0.74460565    -0.07700
C591        C  0.22399405  0.97710138  0.70701691     0.05830
C592        C  0.24007138  0.92534960  0.73057922    -0.02720
Br593      Br  0.18533577  0.87104577  0.74893301    -0.02420
H594        H  0.30668799  0.88331585  0.76823874     0.09740
H595        H  0.20212137  0.06005404  0.73746292     0.07760
Br596      Br  0.24917433  0.06216066  0.85518627    -0.02840
C597        C  0.43379001  0.06498066  0.80433599    -0.09480
C598        C  0.38600488  0.03879666  0.78468834     0.06720
C599        C  0.37021289  0.06052444  0.73132975    -0.03250
C600        C  0.41615876  0.07331535  0.69286253    -0.07700
C601        C  0.46254397  0.10240444  0.71169763     0.05830
C602        C  0.46002473  0.10753879  0.77083188    -0.02720
Br603      Br  0.42465898  0.17789539  0.77881136    -0.02420
H604        H  0.45219163  0.05012518  0.84256568     0.09740
H605        H  0.41764048  0.05851696  0.65063624     0.07760
Br606      Br  0.31533451  0.12158121  0.74033952    -0.02840
C607        C  0.61492361  0.71187510  0.84549477    -0.09480
C608        C  0.56904609  0.67689594  0.86573821     0.06720
C609        C  0.55733624  0.68256648  0.92401536    -0.03250
C610        C  0.57516888  0.73029564  0.95084613    -0.07700
C611        C  0.62687923  0.75438194  0.93838020     0.05830
C612        C  0.64312493  0.74999128  0.88279835    -0.02720
Br613      Br  0.67672902  0.81952285  0.86371608    -0.02420
H614        H  0.62488908  0.71412725  0.80177578     0.09740
H615        H  0.55553435  0.74103985  0.98815801     0.07760
Br616      Br  0.50730174  0.63560416  0.96760094    -0.02840
C617        C  0.40859899  0.67944094  0.86505801    -0.09480
C618        C  0.46582534  0.69253692  0.85851757     0.06720
C619        C  0.47476334  0.74900795  0.87587694    -0.03250
C620        C  0.44334330  0.77542997  0.91797846    -0.07700
C621        C  0.38857826  0.76132175  0.93135517     0.05830
C622        C  0.36908953  0.71901506  0.89081886    -0.02720
Br623      Br  0.30314937  0.72063666  0.84576348    -0.02420
H624        H  0.39335898  0.64245599  0.84457770     0.09740
H625        H  0.45779283  0.81490903  0.93217618     0.07760
Br626      Br  0.52442638  0.79866357  0.84393832    -0.02840
C627        C  0.71396666  0.40526784  0.94188400    -0.09480
C628        C  0.71907773  0.39976712  0.88355358     0.06720
C629        C  0.76040073  0.35754771  0.86716329    -0.03250
C630        C  0.80623715  0.34019599  0.90358219    -0.07700
C631        C  0.80530575  0.35292596  0.96254938     0.05830
C632        C  0.75881363  0.38875942  0.97754494    -0.02720
Br633      Br  0.77195855  0.44468071  0.02430706    -0.02420
H634        H  0.68303912  0.43506891  0.95721227     0.09740
H635        H  0.83637089  0.30914975  0.88826429     0.07760
Br636      Br  0.75006415  0.31604392  0.79987731    -0.02840
C637        C  0.79073325  0.48899808  0.90786954    -0.09480
C638        C  0.73980773  0.50426066  0.88078834     0.06720
C639        C  0.73563316  0.56267324  0.87494247    -0.03250
C640        C  0.77172934  0.59962060  0.90459658    -0.07700
C641        C  0.81651996  0.58128829  0.94104575     0.05830
C642        C  0.82716894  0.52377551  0.93615209    -0.02720
Br643      Br  0.89254443  0.48444612  0.96082387    -0.02420
H644        H  0.80694093  0.44774521  0.90585172     0.09740
H645        H  0.75881481  0.64182150  0.90192229     0.07760
Br646      Br  0.68187574  0.59451105  0.82712363    -0.02840
C647        C  0.32263011  0.45384039  0.74783934    -0.09480
C648        C  0.30750155  0.46310308  0.80500834     0.06720
C649        C  0.24985179  0.46344632  0.81870159    -0.03250
C650        C  0.21209796  0.46808775  0.77816519    -0.07700
C651        C  0.22143481  0.45731581  0.72066717     0.05830
C652        C  0.28013368  0.44672122  0.70635651    -0.02720
Br653      Br  0.30884776  0.41384416  0.63832153    -0.02420
H654        H  0.36631367  0.44778844  0.73574081     0.09740
H655        H  0.17247162  0.46843401  0.79746919     0.07760
Br656      Br  0.21631262  0.46348943  0.89497720    -0.02840
C657        C  0.23681484  0.59476840  0.90014991    -0.09480
C658        C  0.25092593  0.60488683  0.95672181     0.06720
C659        C  0.31106029  0.59294901  0.96284665    -0.03250
C660        C  0.34052381  0.54993267  0.93340912    -0.07700
C661        C  0.32106903  0.52950945  0.88326720     0.05830
C662        C  0.27641906  0.56697226  0.86184817    -0.02720
Br663      Br  0.27260542  0.58902825  0.78384163    -0.02420
H664        H  0.19753469  0.61139566  0.88451485     0.09740
H665        H  0.38205935  0.53787998  0.94678916     0.07760
Br666      Br  0.36569793  0.64440077  0.98232729    -0.02840
C667        C  0.29601037  0.36623968  0.87205579    -0.09480
C668        C  0.32847076  0.41257544  0.89315972     0.06720
C669        C  0.33185878  0.40804516  0.95131138    -0.03250
C670        C  0.29102027  0.37740890  0.98338013    -0.07700
C671        C  0.24187705  0.34873730  0.96425132     0.05830
C672        C  0.25416402  0.33612279  0.90611056    -0.02720
Br673      Br  0.22091889  0.27553404  0.87056186    -0.02420
H674        H  0.29871588  0.35676128  0.82762197     0.09740
H675        H  0.30278914  0.37464676  0.02586923     0.07760
Br676      Br  0.39625291  0.43296658  0.99111602    -0.02840
C677        C  0.55053264  0.21561283  0.79480504    -0.09480
C678        C  0.53031706  0.26785685  0.78870728     0.06720
C679        C  0.50485693  0.27569396  0.73427443    -0.03250
C680        C  0.50781000  0.23074987  0.69242214    -0.07700
C681        C  0.53399195  0.17687301  0.70460927     0.05830
C682        C  0.55880666  0.17477118  0.75821752    -0.02720
Br683      Br  0.58511308  0.11606091  0.80694654    -0.02420
H684        H  0.55117975  0.20250841  0.83575798     0.09740
H685        H  0.48357768  0.23551730  0.65452723     0.07760
Br686      Br  0.45453366  0.33708741  0.71887419    -0.02840
C687        C  0.62989506  0.24354969  0.86671508    -0.09480
C688        C  0.58241477  0.27659644  0.88837072     0.06720
C689        C  0.57620117  0.26937936  0.94723302    -0.03250
C690        C  0.59364101  0.21764166  0.97351480    -0.07700
C691        C  0.63649406  0.17903251  0.95246082     0.05830
C692        C  0.65121454  0.19254902  0.89419243    -0.02720
Br693      Br  0.70369631  0.14786649  0.84868499    -0.02420
H694        H  0.64431660  0.25158144  0.82394369     0.09740
H695        H  0.57291636  0.20917781  0.01321842     0.07760
Br696      Br  0.52353600  0.31714134  0.98779846    -0.02840
C697        C  0.45788092  0.20021227  0.96000384    -0.09480
C698        C  0.40440941  0.18071148  0.95031703     0.06720
C699        C  0.38198873  0.20954776  0.90072395    -0.03250
C700        C  0.41457772  0.25465850  0.87212236    -0.07700
C701        C  0.47444252  0.25723960  0.88120797     0.05830
C702        C  0.49051024  0.21034326  0.91516358    -0.02720
Br703      Br  0.49734946  0.13361479  0.89351245    -0.02420
H704        H  0.46948740  0.22006674  0.99803760     0.09740
H705        H  0.39557816  0.28067688  0.83984617     0.07760
Br706      Br  0.31575913  0.18257638  0.86904541    -0.02840
C707        C  0.70435620  0.88508789  0.40106739    -0.09480
C708        C  0.72192954  0.83572994  0.42630287     0.06720
C709        C  0.76979738  0.81278501  0.39561917    -0.03250
C710        C  0.81306191  0.84946192  0.37565971    -0.07700
C711        C  0.79617481  0.90253992  0.35648183     0.05830
C712        C  0.73603221  0.90858336  0.35505645    -0.02720
Br713      Br  0.70548296  0.96598836  0.30684840    -0.02420
H714        H  0.66664445  0.90392582  0.41690072     0.09740
H715        H  0.85499062  0.83408238  0.36557528     0.07760
Br716      Br  0.76048520  0.74363917  0.35825392    -0.02840
C717        C  0.73785507  0.82557953  0.58855368    -0.09480
C718        C  0.71036627  0.84796763  0.53967641     0.06720
C719        C  0.71561309  0.90468981  0.53526243    -0.03250
C720        C  0.75850011  0.93308223  0.56286238    -0.07700
C721        C  0.79687129  0.91243745  0.60623025     0.05830
C722        C  0.78210826  0.85346832  0.61764554    -0.02720
Br723      Br  0.80924979  0.80439280  0.67743495    -0.02420
H724        H  0.72959553  0.78242965  0.60014577     0.09740
H725        H  0.74859445  0.97547572  0.55673872     0.07760
Br726      Br  0.64651125  0.94520317  0.52562450    -0.02840
C727        C  0.56440812  0.71957720  0.68904066    -0.09480
C728        C  0.51728661  0.75555646  0.68436457     0.06720
C729        C  0.46672522  0.72831235  0.69707429    -0.03250
C730        C  0.46555762  0.68785649  0.74050229    -0.07700
C731        C  0.51650607  0.67059526  0.76624433     0.05830
C732        C  0.56393971  0.67578360  0.72943403    -0.02720
Br733      Br  0.61321009  0.61423158  0.71362232    -0.02420
H734        H  0.60052856  0.72530891  0.66126404     0.09740
H735        H  0.42522255  0.67319551  0.75572099     0.07760
Br736      Br  0.40090880  0.74724105  0.65827496    -0.02840
C737        C  0.60502997  0.88811612  0.66554227    -0.09480
C738        C  0.57759631  0.84157908  0.68779796     0.06720
C739        C  0.59879564  0.82556696  0.74076636    -0.03250
C740        C  0.60993505  0.86999500  0.77783918    -0.07700
C741        C  0.64396754  0.91317295  0.76075276     0.05830
C742        C  0.64234442  0.91911752  0.69920895    -0.02720
Br743      Br  0.68009430  0.97110179  0.65503328    -0.02420
H744        H  0.59773765  0.90023964  0.62260688     0.09740
H745        H  0.59479386  0.87181127  0.82014466     0.07760
Br746      Br  0.66912426  0.78482682  0.72750805    -0.02840
C747        C  0.44713007  0.84148368  0.74868316    -0.09480
C748        C  0.47334486  0.85691507  0.69564047     0.06720
C749        C  0.45844710  0.91259626  0.67989830    -0.03250
C750        C  0.41903415  0.94459165  0.71235845    -0.07700
C751        C  0.40514319  0.93517369  0.77016258     0.05830
C752        C  0.41613733  0.87935213  0.78464543    -0.02720
Br753      Br  0.37459991  0.85100912  0.84541996    -0.02420
H754        H  0.44969081  0.79970576  0.76452966     0.09740
H755        H  0.39635875  0.97470466  0.68923832     0.07760
Br756      Br  0.49069639  0.95285057  0.61755164    -0.02840
C757        C  0.45677989  0.70039708  0.27926627    -0.09480
C758        C  0.50468718  0.72824909  0.29517041     0.06720
C759        C  0.55448130  0.69432439  0.29106653    -0.03250
C760        C  0.55903338  0.65882097  0.24489741    -0.07700
C761        C  0.51372903  0.65264682  0.20997956     0.05830
C762        C  0.46345245  0.65496644  0.24244783    -0.02720
Br763      Br  0.43503318  0.58670614  0.27540147    -0.02420
H764        H  0.42126652  0.70217664  0.30814571     0.09740
H765        H  0.59660888  0.63815706  0.23496708     0.07760
Br766      Br  0.61189336  0.69052057  0.34671478    -0.02840
C767        C  0.61581071  0.82047721  0.28891735    -0.09480
C768        C  0.56484499  0.80537691  0.26558743     0.06720
C769        C  0.56596055  0.81246431  0.20608314    -0.03250
C770        C  0.60472311  0.84848316  0.17669573    -0.07700
C771        C  0.63914168  0.88493800  0.20550703     0.05830
C772        C  0.64424817  0.86719237  0.26483109    -0.02720
Br773      Br  0.60400551  0.89808816  0.32979750    -0.02420
H774        H  0.63038353  0.79905736  0.32720400     0.09740
H775        H  0.60122782  0.85419086  0.13182084     0.07760
Br776      Br  0.50735346  0.78277119  0.16606407    -0.02840
C777        C  0.48040155  0.88469628  0.25137985    -0.09480
C778        C  0.45885187  0.83260940  0.26989983     0.06720
C779        C  0.40584789  0.82224796  0.24027998    -0.03250
C780        C  0.38244738  0.86177980  0.20009805    -0.07700
C781        C  0.40723491  0.91431474  0.18754714     0.05830
C782        C  0.46197744  0.91656280  0.20435596    -0.02720
Br783      Br  0.50756326  0.91439073  0.13862056    -0.02420
H784        H  0.51771599  0.89616156  0.26941662     0.09740
H785        H  0.34092367  0.85485504  0.18343002     0.07760
Br786      Br  0.35110559  0.76582250  0.25163010    -0.02840
C787        C  0.27991511  0.65643436  0.52033743    -0.09480
C788        C  0.22297426  0.67677892  0.52284166     0.06720
C789        C  0.21896024  0.73555954  0.53142421    -0.03250
C790        C  0.25449962  0.76348967  0.50078920    -0.07700
C791        C  0.31121728  0.75528219  0.51035793     0.05830
C792        C  0.32515294  0.69644236  0.52124641    -0.02720
Br793      Br  0.39762350  0.66434992  0.53713725    -0.02420
H794        H  0.28934476  0.61206532  0.51996276     0.09740
H795        H  0.23432317  0.79906937  0.48288389     0.07760
Br796      Br  0.16949755  0.79338781  0.56485475    -0.02840
C797        C  0.34955591  0.89116774  0.58589032    -0.09480
C798        C  0.32671399  0.84069657  0.57225896     0.06720
C799        C  0.27531269  0.83337097  0.60304656    -0.03250
C800        C  0.23774263  0.87872970  0.61695800    -0.07700
C801        C  0.25309039  0.93442746  0.61528611     0.05830
C802        C  0.31499843  0.93753431  0.60448727    -0.02720
Br803      Br  0.36254772  0.99551309  0.58225440    -0.02420
H804        H  0.39328371  0.89557108  0.57328488     0.09740
H805        H  0.19774487  0.86984971  0.63689558     0.07760
Br806      Br  0.27019863  0.77669597  0.65946238    -0.02840
C807        C  0.24791545  0.84133539  0.38065173    -0.09480
C808        C  0.21728266  0.89157095  0.39440196     0.06720
C809        C  0.22397445  0.90444249  0.45146903    -0.03250
C810        C  0.27419208  0.89280342  0.47901084    -0.07700
C811        C  0.31282400  0.85063183  0.46243278     0.05830
C812        C  0.29959173  0.82643607  0.40932681    -0.02720
Br813      Br  0.34430735  0.76413476  0.38444892    -0.02420
H814        H  0.23843437  0.81974429  0.34219088     0.09740
H815        H  0.28089995  0.91790879  0.51377872     0.07760
Br816      Br  0.17282528  0.94944192  0.49040350    -0.02840
C817        C  0.77062874  0.66414413  0.51401194    -0.09480
C818        C  0.82602232  0.68245758  0.49932485     0.06720
C819        C  0.83176490  0.73988751  0.48415657    -0.03250
C820        C  0.78895595  0.77409069  0.49700637    -0.07700
C821        C  0.73259146  0.75772633  0.49569278     0.05830
C822        C  0.72305432  0.70043930  0.50897441    -0.02720
Br823      Br  0.65338822  0.67037411  0.53648685    -0.02420
H824        H  0.76352974  0.62359925  0.53270114     0.09740
H825        H  0.79932159  0.81826587  0.49772742     0.07760
Br826      Br  0.89603687  0.78680603  0.46485142    -0.02840
C827        C  0.97181451  0.68791815  0.47168314    -0.09480
C828        C  0.92057376  0.66521396  0.46088306     0.06720
C829        C  0.90602085  0.66909727  0.40301653    -0.03250
C830        C  0.93820774  0.70426516  0.36382328    -0.07700
C831        C  0.99235820  0.72697033  0.37903112     0.05830
C832        C  0.01101986  0.69941024  0.42956078    -0.02720
Br833      Br  0.03515356  0.62026105  0.43342383    -0.02420
H834        H  0.98048189  0.69723488  0.51319404     0.09740
H835        H  0.91958204  0.71226384  0.32370699     0.07760
Br836      Br  0.83957340  0.63213911  0.38242016    -0.02840
C837        C  0.88317697  0.72837592  0.59176337    -0.09480
C838        C  0.90130467  0.67428395  0.57228976     0.06720
C839        C  0.94890820  0.65528965  0.60252155    -0.03250
C840        C  0.97407598  0.68902922  0.64494148    -0.07700
C841        C  0.96801639  0.74912367  0.64534357     0.05830
C842        C  0.92043867  0.76743678  0.61568514    -0.02720
Br843      Br  0.91001081  0.84315262  0.59312137    -0.02420
H844        H  0.84207590  0.74434731  0.58318401     0.09740
H845        H  0.01044728  0.67202824  0.66553061     0.07760
Br846      Br  0.99328063  0.59577417  0.57275218    -0.02840
C847        C  0.76423658  0.48301918  0.69213603    -0.09480
C848        C  0.82028303  0.48919694  0.71215186     0.06720
C849        C  0.82331470  0.48695701  0.77044124    -0.03250
C850        C  0.79263560  0.44638949  0.79328378    -0.07700
C851        C  0.73475344  0.45267927  0.78848860     0.05830
C852        C  0.71955487  0.46884317  0.73147338    -0.02720
Br853      Br  0.64988970  0.45351190  0.69545113    -0.02420
H854        H  0.75421595  0.48762291  0.64838562     0.09740
H855        H  0.81484254  0.42436209  0.82476738     0.07760
Br856      Br  0.87748866  0.51417694  0.82056499    -0.02840
C857        C  0.95105912  0.44086769  0.75527318    -0.09480
C858        C  0.90854188  0.43066844  0.71534702     0.06720
C859        C  0.88575936  0.37572264  0.72354319    -0.03250
C860        C  0.91024010  0.33551972  0.76260800    -0.07700
C861        C  0.95292768  0.34913644  0.80324628     0.05830
C862        C  0.96194506  0.40689063  0.80234094    -0.02720
Br863      Br  0.98600297  0.44538769  0.86556342    -0.02420
H864        H  0.96856624  0.48090403  0.76045263     0.09740
H865        H  0.89315681  0.29487780  0.75918459     0.07760
Br866      Br  0.82256608  0.35187114  0.68040463    -0.02840
C867        C  0.88636589  0.58728958  0.72199267    -0.09480
C868        C  0.90948439  0.54005773  0.69216879     0.06720
C869        C  0.96726541  0.54290613  0.68517326    -0.03250
C870        C  0.99789372  0.57901123  0.71762457    -0.07700
C871        C  0.97913241  0.60413490  0.76867914     0.05830
C872        C  0.91947795  0.61515567  0.76377695    -0.02720
Br873      Br  0.87434800  0.65136403  0.81871557    -0.02420
H874        H  0.84114386  0.59412484  0.72307579     0.09740
H875        H  0.03535719  0.59008644  0.69789684     0.07760
Br876      Br  0.01049710  0.48756653  0.64678861    -0.02840
C877        C  0.76459834  0.51753433  0.29873038    -0.09480
C878        C  0.80305284  0.47402578  0.30760581     0.06720
C879        C  0.77810653  0.42113464  0.30131321    -0.03250
C880        C  0.73810153  0.41531219  0.25938686    -0.07700
C881        C  0.71937892  0.46182146  0.22704677     0.05830
C882        C  0.72438750  0.51229900  0.25592338    -0.02720
Br883      Br  0.67542894  0.57107025  0.23979495    -0.02420
H884        H  0.76622439  0.55428275  0.32444274     0.09740
H885        H  0.71769566  0.37643219  0.25744245     0.07760
Br886      Br  0.77191988  0.36873682  0.36309240    -0.02840
C887        C  0.89794235  0.37340682  0.30541870    -0.09480
C888        C  0.89982335  0.43128279  0.29051554     0.06720
C889        C  0.92127622  0.43754323  0.23507839    -0.03250
C890        C  0.94568694  0.39546137  0.20243532    -0.07700
C891        C  0.94734005  0.34026617  0.21629443     0.05830
C892        C  0.91295404  0.32929797  0.26589597    -0.02720
Br893      Br  0.85821223  0.27175366  0.26552131    -0.02420
H894        H  0.88052971  0.36158979  0.34576734     0.09740
H895        H  0.96516531  0.40551056  0.16369403     0.07760
Br896      Br  0.90796050  0.49568769  0.18954999    -0.02840
C897        C  0.95298312  0.54680637  0.31072788    -0.09480
C898        C  0.89480993  0.54155790  0.30112693     0.06720
C899        C  0.87588997  0.58811607  0.26325011    -0.03250
C900        C  0.91555363  0.61799278  0.22770426    -0.07700
C901        C  0.97294831  0.60263040  0.22237289     0.05830
C902        C  0.98759312  0.58153639  0.27610019    -0.02720
Br903      Br  0.04541106  0.61856137  0.30928898    -0.02420
H904        H  0.97228854  0.52441942  0.34529430     0.09740
H905        H  0.90003653  0.65203529  0.20250059     0.07760
Br906      Br  0.80425406  0.62504627  0.25204223    -0.02840
C907        C  0.79065357  0.17014201  0.45838893    -0.09480
C908        C  0.73626896  0.17387910  0.48025150     0.06720
C909        C  0.72444600  0.22596315  0.50958195    -0.03250
C910        C  0.76624214  0.26912048  0.51028162    -0.07700
C911        C  0.82234995  0.25725633  0.49240204     0.05830
C912        C  0.83251984  0.20126268  0.47691460    -0.02720
Br913      Br  0.90278620  0.15929111  0.48347953    -0.02420
H914        H  0.80634222  0.13396341  0.43906108     0.09740
H915        H  0.75659054  0.30848966  0.53066992     0.07760
Br916      Br  0.65933092  0.24233200  0.55543590    -0.02840
C917        C  0.97984826  0.25003234  0.62245963    -0.09480
C918        C  0.97865064  0.19044375  0.62186367     0.06720
C919        C  0.92529784  0.17405942  0.60548560    -0.03250
C920        C  0.88333525  0.21361341  0.58580041    -0.07700
C921        C  0.90107343  0.26506574  0.55915328     0.05830
C922        C  0.94664552  0.28532417  0.58778922    -0.02720
Br923      Br  0.94137000  0.35936578  0.60813619    -0.02420
H924        H  0.00050085  0.26981541  0.65571641     0.09740
H925        H  0.84103677  0.19828055  0.58149769     0.07760
Br926      Br  0.90679431  0.10018408  0.61568913    -0.02840
C927        C  0.89822002  0.25166405  0.39650284    -0.09480
C928        C  0.91618125  0.27823151  0.44747746     0.06720
C929        C  0.97313245  0.27132578  0.45556027    -0.03250
C930        C  0.00397757  0.22908594  0.42816747    -0.07700
C931        C  0.98575268  0.18999717  0.38559156     0.05830
C932        C  0.92984905  0.20526654  0.37109777    -0.02720
Br933      Br  0.88730692  0.14671268  0.34775297    -0.02420
H934        H  0.85445898  0.25672525  0.38524692     0.09740
H935        H  0.04533312  0.23738435  0.43646080     0.07760
Br936      Br  0.01594771  0.33228056  0.48212041    -0.02840
loop_ 
_geom_bond_atom_site_label_1 
_geom_bond_atom_site_label_2 
_geom_bond_distance 
_geom_bond_site_symmetry_2 
_ccdc_geom_bond_type 
C1           C17   1.627       .  S
C1          C911   1.552       .  S
C1          C921   1.643       .  S
C1          C928   1.621       .  S
C2           C15   1.604       .  S
C2          C878   1.567       .  S
C2          C888   1.635       .  S
C2          C898   1.659       .  S
C3           C16   1.623       .  S
C3          C848   1.549       .  S
C3          C858   1.658       .  S
C3          C868   1.596       .  S
C4           C18   1.607       .  S
C4          C818   1.532       .  S
C4          C828   1.581       .  S
C4          C838   1.656       .  S
O5           V13   1.952       .  S
O5           C15   1.272       .  A
O6           V13   1.947       .  S
O6           C16   1.274       .  A
O7           V13   1.936       .  S
O7           C17   1.274       .  A
O8           V13   1.921       .  S
O8           C18   1.268       .  A
O9           V14   1.967       .  S
O9           C18   1.281       .  A
O10          V14   1.997       .  S
O10          C17   1.283       .  A
O11          V14   1.962       .  S
O11          C16   1.276       .  A
O12          V14   1.963       .  S
O12          C15   1.285       .  A
V13          V14   2.059       .  T
C19          C36   1.582       .  S
C19         C791   1.582       .  S
C19         C798   1.628       .  S
C19         C811   1.613       .  S
C20          C33   1.650       .  S
C20         C758   1.547       .  S
C20         C768   1.630       .  S
C20         C778   1.678       .  S
C21          C34   1.632       .  S
C21         C728   1.573       .  S
C21         C738   1.577       .  S
C21         C748   1.634       .  S
C22          C35   1.601       .  S
C22         C708   1.639       .  S
C22         C718   1.625       .  S
C22         C821   1.555       .  S
O23          V31   1.998       .  S
O23          C33   1.285       .  A
O24          V31   1.966       .  S
O24          C34   1.277       .  A
O25          V31   1.935       .  S
O25          C35   1.272       .  A
O26          V31   1.938       .  S
O26          C36   1.272       .  A
O27          V32   1.939       .  S
O27          C36   1.269       .  A
O28          V32   1.962       .  S
O28          C35   1.272       .  A
O29          V32   1.963       .  S
O29          C34   1.281       .  A
O30          V32   1.969       .  S
O30          C33   1.286       .  A
V31          V32   2.059       .  T
C37          C52   1.613       .  S
C37         C678   1.618       .  S
C37         C688   1.680       .  S
C37         C701   1.654       .  S
C38          C54   1.603       .  S
C38         C648   1.533       .  S
C38         C661   1.658       .  S
C38         C668   1.654       .  S
C39          C53   1.641       .  S
C39         C628   1.619       .  S
C39         C638   1.645       .  S
C39         C851   1.582       .  S
C40          C51   1.647       .  S
C40         C608   1.600       .  S
C40         C618   1.646       .  S
C40         C731   1.583       .  S
O41          V49   1.981       .  S
O41          C51   1.287       .  A
O42          V49   1.973       .  S
O42          C52   1.283       .  A
O43          V49   1.970       .  S
O43          C53   1.275       .  A
O44          V49   1.919       .  S
O44          C54   1.265       .  A
O45          V50   1.984       .  S
O45          C54   1.283       .  A
O46          V50   1.987       .  S
O46          C53   1.285       .  A
O47          V50   1.952       .  S
O47          C52   1.273       .  A
O48          V50   1.975       .  S
O48          C51   1.279       .  A
V49          V50   2.056       .  T
C55          C70   1.653       .  S
C55         C588   1.559       .  S
C55         C598   1.583   1_565  S
C55         C751   1.641       .  S
C56          C72   1.642       .  S
C56         C568   1.566       .  S
C56         C578   1.678   1_556  S
C56         C621   1.652       .  S
C57          C71   1.633   1_554  S
C57         C548   1.534       .  S
C57         C558   1.624       .  S
C57         C698   1.581   1_554  S
C58          C69   1.660       .  S
C58         C528   1.565       .  S
C58         C538   1.662   1_565  S
C58         C781   1.607       .  S
O59          V67   1.964   1_554  S
O59          C69   1.282       .  A
O60          V67   1.983       .  S
O60          C70   1.280       .  A
O61          V67   1.964   1_545  S
O61          C71   1.278       .  A
O62          V67   1.963       .  S
O62          C72   1.275       .  A
O63          V68   1.978       .  S
O63          C72   1.288       .  A
O64          V68   1.973   1_545  S
O64          C71   1.280       .  A
O65          V68   1.991       .  S
O65          C70   1.292       .  A
O66          V68   2.008   1_554  S
O66          C69   1.285       .  A
V67          V68   2.051       .  T
C73          C88   1.648       .  S
C73         C508   1.543       .  S
C73         C518   1.620       .  S
C73         C871   1.663   1_455  S
C74          C90   1.671       .  S
C74         C488   1.563       .  S
C74         C498   1.643   1_556  S
C74         C641   1.615       .  S
C75          C89   1.714   1_554  S
C75         C478   1.644       .  S
C75         C571   1.564       .  S
C75         C658   1.672   1_554  S
C76          C87   1.636       .  S
C76         C458   1.569       .  S
C76         C471   1.615       .  S
C76         C901   1.668   1_455  S
O77          V85   1.977   1_554  S
O77          C87   1.281       .  A
O78          V85   1.981       .  S
O78          C88   1.274       .  A
O79          V85   2.033       .  S
O79          C89   1.296       .  A
O80          V85   1.957   1_654  S
O80          C90   1.274   1_554  A
O81          V86   2.005   1_655  S
O81          C90   1.292       .  A
O82          V86   2.021   1_554  S
O82          C89   1.297   1_554  A
O83          V86   1.975       .  S
O83          C88   1.288       .  A
O84          V86   1.969   1_554  S
O84          C87   1.283       .  A
V85          V86   2.044       .  T
C91         C108   1.651       .  S
C91         C448   1.656   1_556  S
C91         C491   1.606       .  S
C91         C611   1.580       .  S
C92         C106   1.695       .  S
C92         C428   1.550       .  S
C92         C441   1.564   1_565  S
C92         C741   1.645       .  S
C93         C107   1.692       .  S
C93         C408   1.616       .  S
C93         C418   1.631   1_556  S
C93         C691   1.679       .  S
C94         C105   1.673       .  S
C94         C388   1.603       .  S
C94         C398   1.656       .  S
C94         C771   1.672       .  S
O95         V103   1.984   1_554  S
O95         C105   1.286       .  A
O96         V103   1.999       .  S
O96         C106   1.296       .  A
O97         V103   1.995   1_545  S
O97         C107   1.286       .  A
O98         V103   1.969       .  S
O98         C108   1.282       .  A
O99         V104   2.009       .  S
O99         C108   1.290       .  A
O100        V104   2.036   1_545  S
O100        C107   1.300       .  A
O101        V104   2.023       .  S
O101        C106   1.291       .  A
O102        V104   2.016   1_554  S
O102        C105   1.290       .  A
V103        V104   2.053       .  T
C109        C126   1.698       .  S
C109        C371   1.579       .  S
C109        C381   1.662       .  S
C109        C481   1.633       .  S
C110        C124   1.656       .  S
C110        C358   1.552       .  S
C110        C421   1.638       .  S
C110        C561   1.620       .  S
C111        C123   1.671       .  S
C111        C451   1.668       .  S
C111        C581   1.696       .  S
C111        C761   1.569       .  S
C112        C125   1.675       .  S
C112        C351   1.630       .  S
C112        C501   1.671       .  S
C112        C881   1.585       .  S
O113        V121   1.994       .  S
O113        C123   1.293       .  A
O114        V121   2.006       .  S
O114        C124   1.298       .  A
O115        V121   1.993       .  S
O115        C125   1.280       .  A
O116        V121   1.996       .  S
O116        C126   1.289       .  A
O117        V122   2.028       .  S
O117        C126   1.296       .  A
O118        V122   2.003       .  S
O118        C125   1.286       .  A
O119        V122   1.972       .  S
O119        C124   1.274       .  A
O120        V122   2.001       .  S
O120        C123   1.283       .  A
V121        V122   2.049       .  T
C127        C144   1.613       .  S
C127        C348   1.617       .  S
C127        C411   1.591       .  S
C127        C631   1.636   1_554  S
C128        C142   1.639       .  S
C128        C328   1.571       .  S
C128        C338   1.605       .  S
C128        C861   1.650   1_455  S
C129        C143   1.648       .  S
C129        C378   1.606       .  S
C129        C551   1.571       .  S
C129        C671   1.714   1_554  S
C130        C141   1.676       .  S
C130        C308   1.543       .  S
C130        C321   1.624       .  S
C130        C891   1.613   1_455  S
O131        V139   1.988       .  S
O131        C141   1.287       .  A
O132        V139   1.979   1_556  S
O132        C142   1.282       .  A
O133        V139   1.988       .  S
O133        C143   1.282       .  A
O134        V139   1.982   1_655  S
O134        C144   1.283       .  A
O135        V140   1.944   1_656  S
O135        C144   1.266   1_556  A
O136        V140   1.981       .  S
O136        C143   1.281       .  A
O137        V140   1.944   1_556  S
O137        C142   1.272       .  A
O138        V140   2.004       .  S
O138        C141   1.290       .  A
V139        V140   2.050       .  T
C145        C160   1.716       .  S
C145        C301   1.598   1_565  S
C145        C431   1.592       .  S
C145        C721   1.736       .  S
C146        C162   1.652       .  S
C146        C291   1.600       .  S
C146        C511   1.544       .  S
C146        C841   1.646   1_455  S
C147        C161   1.688       .  S
C147        C278   1.644       .  S
C147        C331   1.598       .  S
C147        C918   1.629   1_455  S
C148        C159   1.691       .  S
C148        C271   1.604   1_565  S
C148        C591   1.549       .  S
C148        C801   1.657       .  S
O149        V157   1.990       .  S
O149        C159   1.277       .  A
O150        V157   2.001   1_655  S
O150        C160   1.288       .  A
O151        V157   2.042   1_545  S
O151        C161   1.302       .  A
O152        V157   2.000       .  S
O152        C162   1.291       .  A
O153        V158   1.950       .  S
O153        C162   1.276       .  A
O154        V158   1.983   1_545  S
O154        C161   1.281       .  A
O155        V158   2.038   1_655  S
O155        C160   1.303       .  A
O156        V158   2.027       .  S
O156        C159   1.304       .  A
V157        V158   2.047       .  T
C163        C180   1.689       .  S
C163        C251   1.555       .  S
C163        C258   1.636       .  S
C163        C281   1.621       .  S
C164        C177   1.675       .  S
C164        C318   1.638       .  S
C164        C368   1.586       .  S
C164        C468   1.672       .  S
C165        C178   1.691       .  S
C165        C341   1.618       .  S
C165        C521   1.647       .  S
C165        C651   1.603       .  S
C166        C179   1.677       .  S
C166        C241   1.649       .  S
C166        C288   1.612       .  S
C166        C788   1.552       .  S
O167        V175   2.000       .  S
O167        C177   1.282       .  A
O168        V175   1.968       .  S
O168        C178   1.281       .  A
O169        V175   2.017       .  S
O169        C179   1.296       .  A
O170        V175   2.032       .  S
O170        C180   1.293       .  A
O171        V176   1.986       .  S
O171        C180   1.287       .  A
O172        V176   2.003       .  S
O172        C179   1.286       .  A
O173        V176   2.012       .  S
O173        C178   1.286       .  A
O174        V176   2.002       .  S
O174        C177   1.296       .  A
V175        V176   2.048       .  T
C181        C198   1.675       .  S
C181        C231   1.674       .  S
C181        C248   1.601       .  S
C181        C268   1.596       .  S
C182        C195   1.634       .  S
C182        C361   1.546       .  S
C182        C401   1.614       .  S
C182        C541   1.657       .  S
C183        C196   1.619       .  S
C183        C438   1.595       .  S
C183        C601   1.608       .  S
C183        C681   1.593       .  S
C184        C197   1.689       .  S
C184        C218   1.586       .  S
C184        C298   1.660       .  S
C184        C908   1.584       .  S
O185        V193   1.943       .  S
O185        C195   1.278       .  A
O186        V193   1.990       .  S
O186        C196   1.285       .  A
O187        V193   2.002       .  S
O187        C197   1.287       .  A
O188        V193   1.984       .  S
O188        C198   1.283       .  A
O189        V194   1.993       .  S
O189        C198   1.278       .  A
O190        V194   2.012       .  S
O190        C197   1.290       .  A
O191        V194   1.956       .  S
O191        C196   1.276       .  A
O192        V194   1.977       .  S
O192        C195   1.281       .  A
V193        V194   2.051       .  T
C199        C213   1.698       .  S
C199        C238   1.620       .  S
C199        C461   1.540       .  S
C199        C831   1.673   1_455  S
C200        C215   1.660       .  S
C200        C221   1.689   1_565  S
C200        C391   1.619       .  S
C200        C711   1.603       .  S
C201        C216   1.676       .  S
C201        C228   1.638       .  S
C201        C531   1.615       .  S
C201        C808   1.633       .  S
C202        C214   1.737       .  S
C202        C261   1.615       .  S
C202        C311   1.603       .  S
C202        C931   1.697   1_455  S
O203        V211   2.016       .  S
O203        C213   1.289       .  A
O204        V211   2.023   1_545  S
O204        C214   1.292       .  A
O205        V211   2.011   1_655  S
O205        C215   1.290       .  A
O206        V211   2.018       .  S
O206        C216   1.293       .  A
O207        V212   1.972       .  S
O207        C216   1.274       .  A
O208        V212   1.988   1_655  S
O208        C215   1.288       .  A
O209        V212   2.046   1_545  S
O209        C214   1.306       .  A
O210        V212   2.010       .  S
O210        C213   1.295       .  A
V211        V212   2.047       .  T
C217        C218   1.432       .  A
C217        C222   1.449       .  A
C217        H224   1.080       .  S
C218        C219   1.346       .  A
C219        C220   1.414   1_545  A
C219       Br226   1.920       .  S
C220        C221   1.469   1_565  A
C220        H225   1.082       .  S
C221        C222   1.462       .  A
C222       Br223   1.896       .  S
C227        C228   1.422       .  A
C227        C232   1.415   1_565  A
C227        H234   1.064       .  S
C228        C229   1.375   1_565  A
C229        C230   1.428       .  A
C229       Br236   1.828       .  S
C230        C231   1.459       .  A
C230        H235   1.071       .  S
C231        C232   1.431       .  A
C232       Br233   1.914   1_545  S
C237        C238   1.466       .  A
C237        C242   1.466       .  A
C237        H244   1.074       .  S
C238        C239   1.360       .  A
C239        C240   1.362       .  A
C239       Br246   1.853       .  S
C240        C241   1.398       .  A
C240        H245   0.976       .  S
C241        C242   1.407       .  A
C242       Br243   1.892       .  S
C247        C248   1.402       .  A
C247        C252   1.368       .  A
C247        H254   1.072       .  S
C248        C249   1.471       .  A
C249        C250   1.428       .  A
C249       Br256   1.932       .  S
C250        C251   1.401       .  A
C250        H255   1.082       .  S
C251        C252   1.395       .  A
C252       Br253   1.929       .  S
C257        C258   1.438       .  A
C257        C262   1.426       .  A
C257        H264   1.050       .  S
C258        C259   1.411       .  A
C259        C260   1.422       .  A
C259       Br266   1.888       .  S
C260        C261   1.446       .  A
C260        H265   1.060       .  S
C261        C262   1.429       .  A
C262       Br263   1.931       .  S
C267        C268   1.418       .  A
C267        C272   1.397       .  A
C267        H274   1.068       .  S
C268        C269   1.400       .  A
C269        C270   1.451       .  A
C269       Br276   1.912       .  S
C270        C271   1.415       .  A
C270        H275   1.048       .  S
C271        C272   1.397       .  A
C272       Br273   1.851       .  S
C277        C278   1.439       .  A
C277        C282   1.492       .  A
C277        H284   1.078       .  S
C278        C279   1.395       .  A
C279        C280   1.408       .  A
C279       Br286   1.931       .  S
C280        C281   1.384       .  A
C280        H285   1.075       .  S
C281        C282   1.470       .  A
C282       Br283   1.897       .  S
C287        C288   1.371       .  A
C287        C292   1.403       .  A
C287        H294   1.021       .  S
C288        C289   1.444       .  A
C289        C290   1.430       .  A
C289       Br296   1.948       .  S
C290        C291   1.454       .  A
C290        H295   1.059       .  S
C291        C292   1.392       .  A
C292       Br293   1.920       .  S
C297        C298   1.392       .  A
C297        C302   1.433       .  A
C297        H304   1.057       .  S
C298        C299   1.495       .  A
C299        C300   1.407       .  A
C299       Br306   1.951       .  S
C300        C301   1.391       .  A
C300        H305   1.079   1_545  S
C301        C302   1.431       .  A
C302       Br303   1.882       .  S
C307        C308   1.395       .  A
C307        C312   1.391       .  A
C307        H314   1.079       .  S
C308        C309   1.403   1_455  A
C309        C310   1.414       .  A
C309       Br316   1.907       .  S
C310        C311   1.414   1_655  A
C310        H315   1.076       .  S
C311        C312   1.436       .  A
C312       Br313   1.907       .  S
C317        C318   1.396       .  A
C317        C322   1.419       .  A
C317        H324   1.080       .  S
C318        C319   1.442       .  A
C319        C320   1.418       .  A
C319       Br326   1.772       .  S
C320        C321   1.375       .  A
C320        H325   1.084       .  S
C321        C322   1.436       .  A
C322       Br323   1.802       .  S
C327        C328   1.365   1_655  A
C327        C332   1.399       .  A
C327        H334   1.083       .  S
C328        C329   1.419       .  A
C329        C330   1.417       .  A
C329       Br336   1.881       .  S
C330        C331   1.405       .  A
C330        H335   1.083       .  S
C331        C332   1.458   1_455  A
C332       Br333   1.885       .  S
C337        C338   1.420       .  A
C337        C342   1.409       .  A
C337        H344   1.066       .  S
C338        C339   1.405       .  A
C339        C340   1.424       .  A
C339       Br346   1.871       .  S
C340        C341   1.439       .  A
C340        H345   1.076       .  S
C341        C342   1.402       .  A
C342       Br343   1.847       .  S
C347        C348   1.411       .  A
C347        C352   1.424       .  A
C347        H354   1.067       .  S
C348        C349   1.434       .  A
C349        C350   1.422       .  A
C349       Br356   1.885       .  S
C350        C351   1.415       .  A
C350        H355   1.052       .  S
C351        C352   1.410       .  A
C352       Br353   1.870       .  S
C357        C358   1.421       .  A
C357        C362   1.409       .  A
C357        H364   1.056       .  S
C358        C359   1.433       .  A
C359        C360   1.374       .  A
C359       Br366   1.912       .  S
C360        C361   1.387       .  A
C360        H365   1.060       .  S
C361        C362   1.397       .  A
C362       Br363   1.912       .  S
C367        C368   1.413       .  A
C367        C372   1.405       .  A
C367        H374   1.075       .  S
C368        C369   1.416       .  A
C369        C370   1.414       .  A
C369       Br376   1.911       .  S
C370        C371   1.402       .  A
C370        H375   1.078       .  S
C371        C372   1.405       .  A
C372       Br373   1.896       .  S
C377        C378   1.379       .  A
C377        C382   1.414       .  A
C377        H384   1.086       .  S
C378        C379   1.428       .  A
C379        C380   1.434       .  A
C379       Br386   1.917       .  S
C380        C381   1.441       .  A
C380        H385   1.068       .  S
C381        C382   1.455       .  A
C382       Br383   1.844       .  S
C387        C388   1.408       .  A
C387        C392   1.407       .  A
C387        H394   1.082       .  S
C388        C389   1.422       .  A
C389        C390   1.426       .  A
C389       Br396   1.921       .  S
C390        C391   1.402       .  A
C390        H395   1.081   1_565  S
C391        C392   1.446       .  A
C392       Br393   1.892       .  S
C397        C398   1.408       .  A
C397        C402   1.421   1_565  A
C397        H404   1.039       .  S
C398        C399   1.447   1_565  A
C399        C400   1.447       .  A
C399       Br406   1.895       .  S
C400        C401   1.432       .  A
C400        H405   1.068       .  S
C401        C402   1.401       .  A
C402       Br403   1.933   1_545  S
C407        C408   1.385       .  A
C407        C412   1.380       .  A
C407        H414   1.086       .  S
C408        C409   1.440   1_556  A
C409        C410   1.442       .  A
C409       Br416   1.871       .  S
C410        C411   1.420       .  A
C410        H415   1.073       .  S
C411        C412   1.417   1_554  A
C412       Br413   1.874       .  S
C417        C418   1.413       .  A
C417        C422   1.423       .  A
C417        H424   1.030       .  S
C418        C419   1.397       .  A
C419        C420   1.438       .  A
C419       Br426   1.864       .  S
C420        C421   1.443       .  A
C420        H425   1.075       .  S
C421        C422   1.420       .  A
C422       Br423   1.908       .  S
C427        C428   1.417   1_545  A
C427        C432   1.436       .  A
C427        H434   1.080       .  S
C428        C429   1.378       .  A
C429        C430   1.374       .  A
C429       Br436   1.917       .  S
C430        C431   1.413       .  A
C430        H435   1.055       .  S
C431        C432   1.439   1_565  A
C432       Br433   1.912       .  S
C437        C438   1.416       .  A
C437        C442   1.392       .  A
C437        H444   1.065       .  S
C438        C439   1.432       .  A
C439        C440   1.445       .  A
C439       Br446   1.937       .  S
C440        C441   1.439       .  A
C440        H445   1.053       .  S
C441        C442   1.425       .  A
C442       Br443   1.918   1_545  S
C447        C448   1.394       .  A
C447        C452   1.444       .  A
C447        H454   1.072       .  S
C448        C449   1.443       .  A
C449        C450   1.427       .  A
C449       Br456   1.884   1_554  S
C450        C451   1.402       .  A
C450        H455   1.070       .  S
C451        C452   1.470       .  A
C452       Br453   1.928       .  S
C457        C458   1.394       .  A
C457        C462   1.404       .  A
C457        H464   1.063       .  S
C458        C459   1.410   1_455  A
C459        C460   1.399       .  A
C459       Br466   1.913       .  S
C460        C461   1.395   1_655  A
C460        H465   1.068       .  S
C461        C462   1.419       .  A
C462       Br463   1.924       .  S
C467        C468   1.443       .  A
C467        C472   1.409       .  A
C467        H474   1.071       .  S
C468        C469   1.476       .  A
C469        C470   1.439       .  A
C469       Br476   1.901       .  S
C470        C471   1.406       .  A
C470        H475   1.063       .  S
C471        C472   1.395       .  A
C472       Br473   1.887       .  S
C477        C478   1.417       .  A
C477        C482   1.440       .  A
C477        H484   1.044       .  S
C478        C479   1.403       .  A
C479        C480   1.444       .  A
C479       Br486   1.855       .  S
C480        C481   1.435       .  A
C480        H485   1.047       .  S
C481        C482   1.399       .  A
C482       Br483   1.894       .  S
C487        C488   1.378       .  A
C487        C492   1.405       .  A
C487        H494   1.074       .  S
C488        C489   1.431   1_556  A
C489        C490   1.395       .  A
C489       Br496   1.897       .  S
C490        C491   1.404   1_554  A
C490        H495   1.081       .  S
C491        C492   1.470       .  A
C492       Br493   1.940       .  S
C497        C498   1.412       .  A
C497        C502   1.428       .  A
C497        H504   1.048   1_554  S
C498        C499   1.379       .  A
C499        C500   1.454       .  A
C499       Br506   1.857       .  S
C500        C501   1.454       .  A
C500        H505   1.069       .  S
C501        C502   1.442       .  A
C502       Br503   1.924       .  S
C507        C508   1.406   1_655  A
C507        C512   1.391       .  A
C507        H514   1.069       .  S
C508        C509   1.411       .  A
C509        C510   1.403       .  A
C509       Br516   1.902       .  S
C510        C511   1.393       .  A
C510        H515   1.065       .  S
C511        C512   1.395   1_455  A
C512       Br513   1.892       .  S
C517        C518   1.435       .  A
C517        C522   1.441       .  A
C517        H524   1.068       .  S
C518        C519   1.395       .  A
C519        C520   1.423       .  A
C519       Br526   1.891       .  S
C520        C521   1.439       .  A
C520        H525   1.063       .  S
C521        C522   1.389       .  A
C522       Br523   1.833       .  S
C527        C528   1.414       .  A
C527        C532   1.449       .  A
C527        H534   1.081   1_565  S
C528        C529   1.401       .  A
C529        C530   1.343       .  A
C529       Br536   1.909       .  S
C530        C531   1.391       .  A
C530        H535   1.036       .  S
C531        C532   1.473       .  A
C532       Br533   1.916   1_565  S
C537        C538   1.444       .  A
C537        C542   1.448       .  A
C537        H544   1.081       .  S
C538        C539   1.398       .  A
C539        C540   1.413       .  A
C539       Br546   1.790       .  S
C540        C541   1.411       .  A
C540        H545   1.072       .  S
C541        C542   1.413       .  A
C542       Br543   1.844       .  S
C547        C548   1.422   1_556  A
C547        C552   1.431   1_556  A
C547        H554   1.073       .  S
C548        C549   1.408       .  A
C549        C550   1.319       .  A
C549       Br556   1.943   1_554  S
C550        C551   1.376       .  A
C550        H555   1.046       .  S
C551        C552   1.453       .  A
C552       Br553   1.917   1_554  S
C557        C558   1.440       .  A
C557        C562   1.439       .  A
C557        H564   1.073       .  S
C558        C559   1.416       .  A
C559        C560   1.390       .  A
C559       Br566   1.937       .  S
C560        C561   1.425       .  A
C560        H565   1.040       .  S
C561        C562   1.405       .  A
C562       Br563   1.890       .  S
C567        C568   1.391   1_554  A
C567        C572   1.409       .  A
C567        H574   1.084       .  S
C568        C569   1.399       .  A
C569        C570   1.408       .  A
C569       Br576   1.921       .  S
C570        C571   1.405   1_556  A
C570        H575   1.073       .  S
C571        C572   1.439       .  A
C572       Br573   1.906       .  S
C577        C578   1.438       .  A
C577        C582   1.449       .  A
C577        H584   1.050       .  S
C578        C579   1.411       .  A
C579        C580   1.437       .  A
C579       Br586   1.925       .  S
C580        C581   1.431       .  A
C580        H585   1.038       .  S
C581        C582   1.457       .  A
C582       Br583   1.923       .  S
C587        C588   1.403       .  A
C587        C592   1.370       .  A
C587        H594   1.067       .  S
C588        C589   1.427   1_565  A
C589        C590   1.418       .  A
C589       Br596   1.908       .  S
C590        C591   1.402   1_545  A
C590        H595   1.083       .  S
C591        C592   1.401       .  A
C592       Br593   1.891       .  S
C597        C598   1.394       .  A
C597        C602   1.427       .  A
C597        H604   1.070       .  S
C598        C599   1.419       .  A
C599        C600   1.443       .  A
C599       Br606   1.950       .  S
C600        C601   1.394       .  A
C600        H605   1.067       .  S
C601        C602   1.412       .  A
C602       Br603   1.876       .  S
C607        C608   1.454       .  A
C607        C612   1.456       .  A
C607        H614   1.062       .  S
C608        C609   1.415       .  A
C609        C610   1.387       .  A
C609       Br616   1.925       .  S
C610        C611   1.389       .  A
C610        H615   1.027       .  S
C611        C612   1.373       .  A
C612       Br613   1.899       .  S
C617        C618   1.403       .  A
C617        C622   1.452       .  A
C617        H624   1.083       .  S
C618        C619   1.434       .  A
C619        C620   1.387       .  A
C619       Br626   1.833       .  S
C620        C621   1.378       .  A
C620        H625   1.068       .  S
C621        C622   1.488       .  A
C622       Br623   1.912       .  S
C627        C628   1.396       .  A
C627        C632   1.421       .  A
C627        H634   1.075       .  S
C628        C629   1.447       .  A
C629        C630   1.455       .  A
C629       Br636   1.912       .  S
C630        C631   1.436       .  A
C630        H635   1.083       .  S
C631        C632   1.428       .  A
C632       Br633   1.781   1_556  S
C637        C638   1.420       .  A
C637        C642   1.395       .  A
C637        H644   1.053       .  S
C638        C639   1.402       .  A
C639        C640   1.438       .  A
C639       Br646   1.871       .  S
C640        C641   1.443       .  A
C640        H645   1.050       .  S
C641        C642   1.398       .  A
C642       Br643   1.900       .  S
C647        C648   1.417       .  A
C647        C652   1.437       .  A
C647        H654   1.078       .  S
C648        C649   1.400       .  A
C649        C650   1.330       .  A
C649       Br656   1.965       .  S
C650        C651   1.406       .  A
C650        H655   1.038       .  S
C651        C652   1.447       .  A
C652       Br653   1.914       .  S
C657        C658   1.416       .  A
C657        C662   1.454       .  A
C657        H664   1.078       .  S
C658        C659   1.460       .  A
C659        C660   1.417       .  A
C659       Br666   1.868       .  S
C660        C661   1.382       .  A
C660        H665   1.075       .  S
C661        C662   1.471       .  A
C662       Br663   1.924       .  S
C667        C668   1.456       .  A
C667        C672   1.462       .  A
C667        H674   1.083       .  S
C668        C669   1.388       .  A
C669        C670   1.427       .  A
C669       Br676   1.918       .  S
C670        C671   1.444       .  A
C670        H675   1.054   1_556  S
C671        C672   1.440       .  A
C672       Br673   1.875       .  S
C677        C678   1.337       .  A
C677        C682   1.323       .  A
C677        H684   1.019       .  S
C678        C679   1.447       .  A
C679        C680   1.471       .  A
C679       Br686   1.913       .  S
C680        C681   1.448       .  A
C680        H685   1.081       .  S
C681        C682   1.413       .  A
C682       Br683   1.913       .  S
C687        C688   1.455       .  A
C687        C692   1.463       .  A
C687        H694   1.082       .  S
C688        C689   1.412       .  A
C689        C690   1.437       .  A
C689       Br696   1.930       .  S
C690        C691   1.448       .  A
C690        H695   1.074   1_556  S
C691        C692   1.455       .  A
C692       Br693   1.947       .  S
C697        C698   1.382       .  A
C697        C702   1.327       .  A
C697        H704   1.068       .  S
C698        C699   1.463       .  A
C699        C700   1.486       .  A
C699       Br706   1.881       .  S
C700        C701   1.443       .  A
C700        H705   1.082       .  S
C701        C702   1.424       .  A
C702       Br703   1.912       .  S
C707        C708   1.379       .  A
C707        C712   1.429       .  A
C707        H714   1.060       .  S
C708        C709   1.442       .  A
C709        C710   1.430       .  A
C709       Br716   1.901       .  S
C710        C711   1.397       .  A
C710        H715   1.079       .  S
C711        C712   1.433       .  A
C712       Br713   1.919       .  S
C717        C718   1.437       .  A
C717        C722   1.443       .  A
C717        H724   1.083       .  S
C718        C719   1.364       .  A
C719        C720   1.408       .  A
C719       Br726   1.907       .  S
C720        C721   1.464       .  A
C720        H725   1.045       .  S
C721        C722   1.477       .  A
C722       Br723   1.944       .  S
C727        C728   1.405       .  A
C727        C732   1.411       .  A
C727        H734   1.081       .  S
C728        C729   1.400       .  A
C729        C730   1.406       .  A
C729       Br736   1.875       .  S
C730        C731   1.419       .  A
C730        H735   1.079       .  S
C731        C732   1.418       .  A
C732       Br733   1.900       .  S
C737        C738   1.391       .  A
C737        C742   1.425       .  A
C737        H744   1.074       .  S
C738        C739   1.411       .  A
C739        C740   1.417       .  A
C739       Br746   1.941       .  S
C740        C741   1.372       .  A
C740        H745   1.062       .  S
C741        C742   1.469       .  A
C742       Br743   1.848       .  S
C747        C748   1.441       .  A
C747        C752   1.435       .  A
C747        H754   1.063       .  S
C748        C749   1.418       .  A
C749        C750   1.420       .  A
C749       Br756   1.911       .  S
C750        C751   1.422       .  A
C750        H755   1.048       .  S
C751        C752   1.395       .  A
C752       Br753   1.860       .  S
C757        C758   1.386       .  A
C757        C762   1.406       .  A
C757        H764   1.077       .  S
C758        C759   1.424       .  A
C759        C760   1.395       .  A
C759       Br766   1.917       .  S
C760        C761   1.381       .  A
C760        H765   1.037       .  S
C761        C762   1.409       .  A
C762       Br763   1.926       .  S
C767        C768   1.394       .  A
C767        C772   1.422       .  A
C767        H774   1.098       .  S
C768        C769   1.422       .  A
C769        C770   1.435       .  A
C769       Br776   1.854       .  S
C770        C771   1.396       .  A
C770        H775   1.078       .  S
C771        C772   1.474       .  A
C772       Br773   1.946       .  S
C777        C778   1.414       .  A
C777        C782   1.417       .  A
C777        H784   1.033       .  S
C778        C779   1.478       .  A
C779        C780   1.447       .  A
C779       Br786   1.899       .  S
C780        C781   1.420       .  A
C780        H785   1.085       .  S
C781        C782   1.368       .  A
C782       Br783   1.883       .  S
C787        C788   1.429       .  A
C787        C792   1.448       .  A
C787        H794   1.079       .  S
C788        C789   1.422       .  A
C789        C790   1.292       .  A
C789       Br796   1.963       .  S
C790        C791   1.380       .  A
C790        H795   1.058       .  S
C791        C792   1.460       .  A
C792       Br793   1.914       .  S
C797        C798   1.373       .  A
C797        C802   1.436       .  A
C797        H804   1.081       .  S
C798        C799   1.422       .  A
C799        C800   1.429       .  A
C799       Br806   1.898       .  S
C800        C801   1.384       .  A
C800        H805   1.076       .  S
C801        C802   1.489       .  A
C802       Br803   1.865       .  S
C807        C808   1.430       .  A
C807        C812   1.452       .  A
C807        H814   1.083       .  S
C808        C809   1.406       .  A
C809        C810   1.393       .  A
C809       Br816   1.850       .  S
C810        C811   1.405       .  A
C810        H815   1.042       .  S
C811        C812   1.436       .  A
C812       Br813   1.906       .  S
C817        C818   1.427       .  A
C817        C822   1.418       .  A
C817        H824   1.075       .  S
C818        C819   1.422       .  A
C819        C820   1.327       .  A
C819       Br826   1.951       .  S
C820        C821   1.400       .  A
C820        H825   1.087       .  S
C821        C822   1.421       .  A
C822       Br823   1.913       .  S
C827        C828   1.369       .  A
C827        C832   1.382   1_655  A
C827        H834   1.038       .  S
C828        C829   1.426       .  A
C829        C830   1.460       .  A
C829       Br836   1.894       .  S
C830        C831   1.456       .  A
C830        H835   1.072       .  S
C831        C832   1.437   1_655  A
C832       Br833   1.968       .  S
C837        C838   1.433       .  A
C837        C842   1.425       .  A
C837        H844   1.064       .  S
C838        C839   1.416       .  A
C839        C840   1.441       .  A
C839       Br846   1.891       .  S
C840        C841   1.440       .  A
C840        H845   1.072   1_655  S
C841        C842   1.404       .  A
C842       Br843   1.894       .  S
C847        C848   1.431       .  A
C847        C852   1.442       .  A
C847        H854   1.075       .  S
C848        C849   1.388       .  A
C849        C850   1.326       .  A
C849       Br856   1.896       .  S
C850        C851   1.386       .  A
C850        H855   1.054       .  S
C851        C852   1.455       .  A
C852       Br853   1.918       .  S
C857        C858   1.423       .  A
C857        C862   1.400       .  A
C857        H864   1.057       .  S
C858        C859   1.436       .  A
C859        C860   1.450       .  A
C859       Br866   1.929       .  S
C860        C861   1.455       .  A
C860        H865   1.062       .  S
C861        C862   1.398       .  A
C862       Br863   1.872       .  S
C867        C868   1.435       .  A
C867        C872   1.451       .  A
C867        H874   1.083       .  S
C868        C869   1.381       .  A
C869        C870   1.386       .  A
C869       Br876   1.892   1_655  S
C870        C871   1.420       .  A
C870        H875   1.034   1_655  S
C871        C872   1.442       .  A
C872       Br873   1.882       .  S
C877        C878   1.389       .  A
C877        C882   1.416       .  A
C877        H884   1.076       .  S
C878        C879   1.413       .  A
C879        C880   1.398       .  A
C879       Br886   1.923       .  S
C880        C881   1.414       .  A
C880        H885   1.055       .  S
C881        C882   1.401       .  A
C882       Br883   1.849       .  S
C887        C888   1.424       .  A
C887        C892   1.454       .  A
C887        H894   1.073       .  S
C888        C889   1.410       .  A
C889        C890   1.389       .  A
C889       Br896   1.778       .  S
C890        C891   1.355       .  A
C890        H895   1.049       .  S
C891        C892   1.444       .  A
C892       Br893   1.905       .  S
C897        C898   1.411       .  A
C897        C902   1.421       .  A
C897        H904   1.080       .  S
C898        C899   1.492       .  A
C899        C900   1.444       .  A
C899       Br906   1.924       .  S
C900        C901   1.409       .  A
C900        H905   1.069       .  S
C901        C902   1.415       .  A
C902       Br903   1.838   1_655  S
C907        C908   1.384       .  A
C907        C912   1.334       .  A
C907        H914   1.043       .  S
C908        C909   1.453       .  A
C909        C910   1.441       .  A
C909       Br916   1.911       .  S
C910        C911   1.415       .  A
C910        H915   1.081       .  S
C911        C912   1.406       .  A
C912       Br913   1.940       .  S
C917        C918   1.423       .  A
C917        C922   1.413       .  A
C917        H924   1.057   1_655  S
C918        C919   1.394       .  A
C919        C920   1.442       .  A
C919       Br926   1.836       .  S
C920        C921   1.441       .  A
C920        H925   1.081       .  S
C921        C922   1.385       .  A
C922       Br923   1.839       .  S
C927        C928   1.448       .  A
C927        C932   1.458       .  A
C927        H934   1.082       .  S
C928        C929   1.376       .  A
C929        C930   1.396   1_655  A
C929       Br936   1.907   1_655  S
C930        C931   1.460   1_455  A
C930        H935   1.027       .  S
C931        C932   1.418       .  A
C932       Br933   1.834       .  S
