geometry optimzed in LAMMPS
_audit_creation_date              2020-12-01 
_audit_creation_method            'lammps2cif' 
_symmetry_space_group_name_H-M    'P1' 
_symmetry_Int_Tables_number       1 
_symmetry_cell_setting            triclinic 
loop_ 
_symmetry_equiv_pos_as_xyz 
  x,y,z 
_cell_length_a                    30.33542603 
_cell_length_b                    30.278957836818016 
_cell_length_c                    41.37881961121596 
_cell_angle_alpha                 90.52556518206617 
_cell_angle_beta                  89.04311515283824 
_cell_angle_gamma                 120.34318318380392 
loop_ 
_atom_site_label 
_atom_site_type_symbol 
_atom_site_fract_x 
_atom_site_fract_y 
_atom_site_fract_z 
_atom_site_charge 
Fe1        Fe  0.20214485  0.40413837  0.25045407     1.65800
Fe2        Fe  0.20587579  0.29290895  0.24877710     1.73200
Fe3        Fe  0.09066907  0.28821554  0.25050655     1.54400
O4          O  0.08380822  0.33018309  0.28772966    -0.80500
O5          O  0.15919719  0.23895797  0.21553552    -0.78800
O6          O  0.15407058  0.40721285  0.28543669    -0.83000
O7          O  0.15822680  0.40762444  0.21414862    -0.77900
O8          O  0.08757542  0.23677088  0.28440198    -0.79700
O9          O  0.25199842  0.33680271  0.21108340    -0.82400
C10         C  0.11223135  0.37910066  0.20565711     0.98300
C11         C  0.11004111  0.37632081  0.29700861     1.05800
O12         O  0.16620378  0.32843913  0.24994684    -1.11400
O13         O  0.25846922  0.34150087  0.28205032    -0.73800
O14         O  0.25090478  0.41071539  0.28658982    -0.77300
O15         O  0.08363924  0.33459543  0.21717152    -0.78000
C16         C  0.27140711  0.38485303  0.29435213     0.97300
O17         O  0.25549146  0.41181428  0.21581435    -0.76000
O18         O  0.16453172  0.24436746  0.28615770    -0.81200
C19         C  0.11518826  0.22299799  0.20401573     0.99900
C20         C  0.11841971  0.22424372  0.29570686     1.05800
O21         O  0.08696988  0.24076609  0.21298193    -0.76800
C22         C  0.27027644  0.38318276  0.20294709     1.04100
C23         C  0.00394713  0.99257000  0.07122973     0.87600
C24         C  0.02929124  0.46561203  0.08763338    -0.52600
C25         C  0.02734740  0.46645471  0.12059724     0.10500
C26         C  0.00105679  0.99387140  0.13442056     0.21500
C27         C  0.44901984  0.46526984  0.08598915    -0.53300
C28         C  0.44760644  0.46690758  0.11888482     0.10700
C29         C  0.03050799  0.04671076  0.08621552    -0.52900
C30         C  0.02903571  0.04716788  0.11915520     0.11200
H31         H  0.04666120  0.44627288  0.07573376     0.15700
H32         H  0.99984848  0.99454561  0.16127462     0.01500
H33         H  0.41459189  0.44760614  0.07162680     0.16000
H34         H  0.04935232  0.08159207  0.07196512     0.15800
C35         C  0.99408332  0.49430643  0.42825040     0.87600
C36         C  0.02360566  0.04839387  0.41329134    -0.52600
C37         C  0.02699459  0.04913650  0.38035267     0.10500
C38         C  0.99969931  0.99589674  0.36478303     0.21500
C39         C  0.44160312  0.46954360  0.41148512    -0.53300
C40         C  0.44480710  0.47042374  0.37860538     0.10700
C41         C  0.01996623  0.46577250  0.41368310    -0.52900
C42         C  0.02254463  0.46637300  0.38071897     0.11200
H43         H  0.04099598  0.08312908  0.42773101     0.15700
H44         H  0.00192920  0.99657833  0.33793821     0.01500
H45         H  0.40470619  0.45371486  0.42299778     0.16000
H46         H  0.03439989  0.44625272  0.42822947     0.15800
Fe47       Fe  0.29666145  0.09534841  0.75048246     1.65800
Fe48       Fe  0.29866954  0.20899999  0.75032511     1.73200
Fe49       Fe  0.41056627  0.20808140  0.74983022     1.54400
O50         O  0.41389245  0.16640779  0.78807544    -0.80500
O51         O  0.34950702  0.26434328  0.71888566    -0.78800
O52         O  0.34431353  0.08975167  0.78259259    -0.83000
O53         O  0.33838497  0.08967806  0.71191922    -0.77900
O54         O  0.41604529  0.26239824  0.78232344    -0.79700
O55         O  0.25447503  0.16841288  0.71131121    -0.82400
C56         C  0.38556854  0.11588991  0.70436556     0.98300
C57         C  0.38698898  0.11937848  0.79542696     1.05800
O58         O  0.33531628  0.17076722  0.75016901    -1.11400
O59         O  0.24204666  0.15968698  0.78169187    -0.73800
O60         O  0.25042013  0.09167486  0.78914390    -0.77300
O61         O  0.41522720  0.15880978  0.71732525    -0.78000
C62         C  0.22876962  0.11743051  0.79538404     0.97300
O63         O  0.24343948  0.09060389  0.71846832    -0.76000
O64         O  0.33891392  0.25327353  0.78950927    -0.81200
C65         C  0.39194359  0.27683489  0.70523873     0.99900
C66         C  0.38602274  0.27444906  0.79623994     1.05800
O67         O  0.41675165  0.25455417  0.71152427    -0.76800
C68         C  0.23218596  0.12087989  0.70483843     1.04100
C69         C  0.99618517  0.50517422  0.92852144     0.87600
C70         C  0.46873499  0.45102884  0.91362760    -0.52600
C71         C  0.47007272  0.45034348  0.88068564     0.10500
C72         C  0.99763835  0.50372304  0.86537770     0.21500
C73         C  0.05054317  0.03218863  0.91304390    -0.53300
C74         C  0.05090163  0.03120341  0.88003366     0.10700
C75         C  0.47067067  0.03256005  0.91280698    -0.52900
C76         C  0.47095176  0.03104991  0.87992249     0.11200
H77         H  0.45127654  0.41628542  0.92801747     0.15700
H78         H  0.99803181  0.50313976  0.83853351     0.01500
H79         H  0.08539005  0.05092661  0.92696795     0.16000
H80         H  0.45418436  0.05247238  0.92507203     0.15800
C81         C  0.00876767  0.50607992  0.57152253     0.87600
C82         C  0.47889518  0.03123247  0.58579541    -0.52600
C83         C  0.47667073  0.03091079  0.61875572     0.10500
C84         C  0.00393470  0.50592594  0.63469356     0.21500
C85         C  0.06087146  0.03515158  0.58771823    -0.53300
C86         C  0.05829344  0.03430940  0.62062456     0.10700
C87         C  0.48298561  0.45222787  0.58691958    -0.52900
C88         C  0.48010914  0.45234575  0.61988658     0.11200
H89         H  0.46224000  0.04865163  0.57127217     0.15700
H90         H  0.00199337  0.50605426  0.66154604     0.01500
H91         H  0.09750785  0.05526960  0.57583410     0.16000
H92         H  0.46754338  0.41713218  0.57291444     0.15800
C93         C  0.37896109  0.31892346  0.84610259     0.24700
C94         C  0.40806015  0.31687194  0.81990616    -0.23400
C95         C  0.45847925  0.35753314  0.81527102     0.19600
C96         C  0.47869920  0.40004706  0.83560268     0.24700
C97         C  0.44918085  0.40296065  0.86111562    -0.23300
C98         C  0.39947147  0.36160236  0.86666149     0.19600
F99         F  0.37003466  0.36337495  0.89112972    -0.13300
F100        F  0.33074996  0.27970186  0.85178358    -0.15600
F101        F  0.02743633  0.43846727  0.83026189    -0.15600
F102        F  0.48775913  0.35731817  0.79013656    -0.13100
C103        C  0.14521067  0.10766291  0.81346559     0.24700
C104        C  0.18480208  0.09699216  0.81835947    -0.23400
C105        C  0.18058938  0.06545663  0.84441582     0.19600
C106        C  0.13762942  0.04496825  0.86504565     0.24700
C107        C  0.09801561  0.05526936  0.85976515    -0.23300
C108        C  0.10228647  0.08685516  0.83384512     0.19600
F109        F  0.06490646  0.09790004  0.82824136    -0.13300
F110        F  0.14702563  0.13684716  0.78816643    -0.15600
F111        F  0.13381428  0.01346352  0.88941733    -0.15600
F112        F  0.21808547  0.05461922  0.85000856    -0.13300
C113        C  0.39239668  0.04493286  0.81569403     0.24700
C114        C  0.40666460  0.09691512  0.81866088    -0.23400
C115        C  0.44135952  0.12688342  0.84279392     0.19600
C116        C  0.46156124  0.10527141  0.86334473     0.24700
C117        C  0.44782830  0.05368444  0.85976699    -0.23300
C118        C  0.41294961  0.02370197  0.83597719     0.19600
F119        F  0.39984534  0.47408232  0.83158065    -0.13300
F120        F  0.35994764  0.01485658  0.79230165    -0.15600
F121        F  0.99589820  0.13514674  0.88595269    -0.15600
F122        F  0.45572471  0.17696868  0.84650644    -0.13300
C123        C  0.39774255  0.35690770  0.68394668     0.24700
C124        C  0.41348268  0.32030662  0.68206547    -0.23400
C125        C  0.45102601  0.32723939  0.65884726     0.19600
C126        C  0.47169942  0.36936024  0.63785099     0.24700
C127        C  0.45584139  0.40560130  0.64004208    -0.23300
C128        C  0.41884493  0.39903858  0.66327139     0.19600
F129        F  0.40297593  0.43359531  0.66601127    -0.13300
F130        F  0.36312997  0.35317214  0.70662682    -0.15600
F131        F  0.50875796  0.37592404  0.61629451    -0.15600
F132        F  0.46800000  0.29354199  0.65652300    -0.13300
C133        C  0.14973644  0.04754532  0.68570264     0.24700
C134        C  0.18952005  0.09867775  0.68178321    -0.23400
C135        C  0.18640109  0.12825162  0.65686164     0.19600
C136        C  0.14398794  0.10730059  0.63662594     0.24700
C137        C  0.10397861  0.05665696  0.64116729    -0.23300
C138        C  0.10746133  0.02689356  0.66563964     0.19600
F139        F  0.07048875  0.47750808  0.67015594    -0.13300
F140        F  0.15074162  0.01773376  0.70968372    -0.15600
F141        F  0.14130588  0.13695109  0.61322283    -0.15600
F142        F  0.22444698  0.17726875  0.65196156    -0.13300
C143        C  0.46149813  0.11464031  0.68046172     0.24700
C144        C  0.40827784  0.09558402  0.68053013    -0.23400
C145        C  0.37785583  0.05604905  0.65869645     0.19600
C146        C  0.40024426  0.03622451  0.63749069     0.24700
C147        C  0.45305980  0.05491546  0.63818824    -0.23300
C148        C  0.48337492  0.09429137  0.65968312     0.19600
F149        F  0.03451621  0.11293100  0.66076128    -0.13300
F150        F  0.49259568  0.15178802  0.70142096    -0.15600
F151        F  0.37034590  0.49807309  0.61669057    -0.15600
F152        F  0.32652078  0.03623118  0.65801082    -0.13300
C153        C  0.45829806  0.47782000  0.51991824     0.24700
C154        C  0.00680530  0.50344197  0.53432561    -0.23400
C155        C  0.04916410  0.02032768  0.51335697     0.19600
C156        C  0.04390923  0.01750475  0.47979496     0.24700
C157        C  0.99604477  0.49580675  0.46543567    -0.23300
C158        C  0.45278106  0.47365818  0.48636621     0.19600
F159        F  0.40445939  0.44655047  0.47550333    -0.13300
F160        F  0.41520626  0.45596190  0.53862002    -0.15600
F161        F  0.08701293  0.03590851  0.46124573    -0.15600
F162        F  0.09691991  0.03821780  0.52439209    -0.13300
C163        C  0.02275814  0.47935351  0.97918868     0.24700
C164        C  0.99734787  0.50283708  0.96557459    -0.23400
C165        C  0.47259964  0.01993252  0.98712249     0.19600
C166        C  0.47620593  0.01685950  0.02050982     0.24700
C167        C  0.00247554  0.49457711  0.03412274    -0.23300
C168        C  0.02536858  0.47516823  0.01262192     0.19600
F169        F  0.05093408  0.45221771  0.02285975    -0.13300
F170        F  0.04531779  0.45973477  0.95981624    -0.15600
F171        F  0.45232035  0.03517434  0.03979096    -0.15600
F172        F  0.44246957  0.03786483  0.97696518    -0.13300
C173        C  0.03524345  0.38150662  0.31819691     0.24700
C174        C  0.08697469  0.39572136  0.32087067    -0.23400
C175        C  0.11677300  0.43146619  0.34468880     0.19600
C176        C  0.09531939  0.45302867  0.36515056     0.24700
C177        C  0.04420135  0.44015281  0.36151982    -0.23300
C178        C  0.01427376  0.40394224  0.33810103     0.19600
F179        F  0.96465004  0.39047057  0.33434149    -0.13300
F180        F  0.00558180  0.34785537  0.29511133    -0.15600
F181        F  0.12533928  0.98834647  0.38737365    -0.15600
F182        F  0.16667840  0.44569596  0.34800693    -0.13300
C183        C  0.32138391  0.37537523  0.33867495     0.24700
C184        C  0.31372342  0.40707261  0.31762617    -0.23400
C185        C  0.34907943  0.46008319  0.31739506     0.19600
C186        C  0.39186752  0.48066986  0.33721626     0.24700
C187        C  0.39935885  0.44886128  0.35803335    -0.23300
C188        C  0.36357809  0.39627955  0.35900920     0.19600
F189        F  0.37040264  0.36499291  0.37901439    -0.13300
F190        F  0.28798251  0.32418607  0.33961791    -0.15600
F191        F  0.42586180  0.53172693  0.33624212    -0.15600
F192        F  0.34341392  0.49171850  0.29701163    -0.13300
C193        C  0.03971704  0.13414623  0.36360108     0.24700
C194        C  0.05390367  0.09667334  0.36106993    -0.23400
C195        C  0.09187684  0.10321649  0.33856568     0.19600
C196        C  0.11462681  0.14606695  0.31835044     0.24700
C197        C  0.09900781  0.18265843  0.31988938    -0.23300
C198        C  0.06179886  0.17662527  0.34299319     0.19600
F199        F  0.04649861  0.21164590  0.34541086    -0.13300
F200        F  0.00268929  0.12832907  0.38494850    -0.15600
F201        F  0.14997311  0.15029297  0.29609158    -0.15600
F202        F  0.10663395  0.06778767  0.33596113    -0.13300
C203        C  0.10007703  0.45547334  0.13767349     0.24700
C204        C  0.04881763  0.44262195  0.14133180    -0.23400
C205        C  0.01838031  0.40806375  0.16560484     0.19600
C206        C  0.03872262  0.38637134  0.18585923     0.24700
C207        C  0.09022012  0.39944593  0.18250883    -0.23300
C208        C  0.12081417  0.43451826  0.15832364     0.19600
F209        F  0.17079919  0.44861438  0.15468891    -0.13300
F210        F  0.13055749  0.48978101  0.11485737    -0.15600
F211        F  0.00852939  0.35423864  0.20968559    -0.15600
F212        F  0.46873059  0.39502836  0.16962281    -0.13300
C213        C  0.35023128  0.45773522  0.18050591     0.24700
C214        C  0.31254147  0.40550188  0.17876290    -0.23400
C215        C  0.31840395  0.37427871  0.15564332     0.19600
C216        C  0.36156106  0.39462275  0.13531537     0.24700
C217        C  0.39983335  0.44619352  0.13809095    -0.23300
C218        C  0.39356553  0.47770824  0.16049112     0.19600
F219        F  0.42986157  0.02758783  0.16321326    -0.13300
F220        F  0.34663295  0.48907565  0.20274364    -0.15600
F221        F  0.36714385  0.36339923  0.11397707    -0.15600
F222        F  0.28277550  0.32387404  0.15301333    -0.13300
C223        C  0.03816140  0.13090704  0.13658996     0.24700
C224        C  0.05345899  0.09434776  0.13883901    -0.23400
C225        C  0.09009548  0.10114471  0.16158881     0.19600
C226        C  0.11119063  0.14377305  0.18195154     0.24700
C227        C  0.09536512  0.18021824  0.18037138    -0.23300
C228        C  0.05852601  0.17328230  0.15742736     0.19600
F229        F  0.04197877  0.20725587  0.15527037    -0.13300
F230        F  0.50189475  0.12436119  0.11517882    -0.15600
F231        F  0.14544319  0.14798574  0.20426585    -0.15600
F232        F  0.10532044  0.06617710  0.16424199    -0.13300
Fe233      Fe  0.20235106  0.90376329  0.25031916     1.65800
Fe234      Fe  0.20576613  0.79240686  0.24866335     1.73200
Fe235      Fe  0.09073201  0.78805867  0.25056216     1.54400
O236        O  0.08415589  0.82999353  0.28792383    -0.80500
O237        O  0.15875463  0.73838955  0.21558726    -0.78800
O238        O  0.15418825  0.90714253  0.28513727    -0.83000
O239        O  0.15869532  0.90722823  0.21384461    -0.77900
O240        O  0.08756511  0.73639648  0.28430569    -0.79700
O241        O  0.25176611  0.83601320  0.21082828    -0.82400
C242        C  0.11254627  0.87892261  0.20558656     0.98300
C243        C  0.11032140  0.87627546  0.29694007     1.05800
O244        O  0.16625664  0.82808977  0.24988832    -1.11400
O245        O  0.25865274  0.84113920  0.28174478    -0.73800
O246        O  0.25076397  0.91014276  0.28659913    -0.77300
O247        O  0.08377920  0.83464587  0.21736654    -0.78000
C248        C  0.27146700  0.88438876  0.29416935     0.97300
O249        O  0.25590527  0.91127130  0.21586004    -0.76000
O250        O  0.16455926  0.74410365  0.28618121    -0.81200
C251        C  0.11483065  0.72270275  0.20401168     0.99900
C252        C  0.11840590  0.72390512  0.29566052     1.05800
O253        O  0.08681123  0.74072696  0.21291733    -0.76800
C254        C  0.27047034  0.88252914  0.20288347     1.04100
C255        C  0.00344721  0.49237728  0.07118725     0.87600
C256        C  0.02982844  0.96574375  0.08754828    -0.52600
C257        C  0.02804057  0.96657280  0.12051709     0.10500
C258        C  0.00038633  0.49385611  0.13436960     0.21500
C259        C  0.44954093  0.96522684  0.08610138    -0.53300
C260        C  0.44821442  0.96680647  0.11900505     0.10700
C261        C  0.03015301  0.54657584  0.08612118    -0.52900
C262        C  0.02852195  0.54710724  0.11905329     0.11200
H263        H  0.04654335  0.94589741  0.07557269     0.15700
H264        H  0.99910361  0.49461047  0.16121759     0.01500
H265        H  0.41505637  0.94737959  0.07179632     0.16000
H266        H  0.04919721  0.58142956  0.07184957     0.15800
C267        C  0.99393925  0.99418812  0.42802441     0.87600
C268        C  0.02367152  0.54843298  0.41335210    -0.52600
C269        C  0.02691072  0.54892188  0.38041100     0.10500
C270        C  0.99937661  0.49555103  0.36500948     0.21500
C271        C  0.44159313  0.96905418  0.41109168    -0.53300
C272        C  0.44503795  0.97046233  0.37823469     0.10700
C273        C  0.01996542  0.96575078  0.41342754    -0.52900
C274        C  0.02288190  0.96668943  0.38046096     0.11200
H275        H  0.04108328  0.58330014  0.42766175     0.15700
H276        H  0.00144295  0.49603619  0.33815723     0.01500
H277        H  0.40439557  0.95122241  0.42249618     0.16000
H278        H  0.03416152  0.94597451  0.42793566     0.15800
Fe279      Fe  0.29691166  0.59558271  0.75050298     1.65800
Fe280      Fe  0.29890599  0.70920531  0.75061651     1.73200
Fe281      Fe  0.41075276  0.70830572  0.74968598     1.54400
O282        O  0.41426149  0.66677240  0.78794999    -0.80500
O283        O  0.34968534  0.76475034  0.71922844    -0.78800
O284        O  0.34488381  0.58997973  0.78231530    -0.83000
O285        O  0.33830326  0.58995003  0.71169092    -0.77900
O286        O  0.41644791  0.76279530  0.78213560    -0.79700
O287        O  0.25468795  0.66882395  0.71159280    -0.82400
C288        C  0.38551601  0.61605278  0.70418375     0.98300
C289        C  0.38751931  0.61967219  0.79517180     1.05800
O290        O  0.33553780  0.67098105  0.75022622    -1.11400
O291        O  0.24232270  0.65969047  0.78194259    -0.73800
O292        O  0.25096498  0.59184975  0.78940068    -0.77300
O293        O  0.41524058  0.65889008  0.71721574    -0.78000
C294        C  0.22916571  0.61747012  0.79565065     0.97300
O295        O  0.24345544  0.59094369  0.71877811    -0.76000
O296        O  0.33921449  0.75318522  0.78984702    -0.81200
C297        C  0.39186174  0.77699250  0.70528885     0.99900
C298        C  0.38642416  0.77459234  0.79632514     1.05800
O299        O  0.41656068  0.75450891  0.71131998    -0.76800
C300        C  0.23224306  0.62126780  0.70518250     1.04100
C301        C  0.99646953  0.00530725  0.92858654     0.87600
C302        C  0.46919472  0.95114181  0.91375162    -0.52600
C303        C  0.47025820  0.95038728  0.88081000     0.10500
C304        C  0.99744952  0.00371884  0.86544561     0.21500
C305        C  0.05036620  0.53181508  0.91313521    -0.53300
C306        C  0.05097063  0.53095611  0.88012494     0.10700
C307        C  0.47056905  0.53252619  0.91262150    -0.52900
C308        C  0.47120772  0.53119189  0.87973611     0.11200
H309        H  0.45208604  0.91644478  0.92818025     0.15700
H310        H  0.99760582  0.00304649  0.83860374     0.01500
H311        H  0.08510439  0.55031949  0.92717050     0.16000
H312        H  0.45341410  0.55184265  0.92474622     0.15800
C313        C  0.00808321  0.00582110  0.57132744     0.87600
C314        C  0.47917691  0.53115402  0.58582666    -0.52600
C315        C  0.47674475  0.53088199  0.61878564     0.10500
C316        C  0.00384030  0.00579789  0.63449907     0.21500
C317        C  0.06139926  0.53525347  0.58811907    -0.53300
C318        C  0.05846836  0.53457805  0.62100393     0.10700
C319        C  0.48215011  0.95201567  0.58672707    -0.52900
C320        C  0.47965318  0.95219491  0.61970083     0.11200
H321        H  0.46243008  0.54833922  0.57117025     0.15700
H322        H  0.00211375  0.00597012  0.66135320     0.01500
H323        H  0.09821229  0.55414581  0.57655188     0.16000
H324        H  0.46631828  0.91690504  0.57270950     0.15800
C325        C  0.37950937  0.81879768  0.84635532     0.24700
C326        C  0.40851513  0.81695205  0.82003059    -0.23400
C327        C  0.45883252  0.85776186  0.81531007     0.19600
C328        C  0.47900677  0.90024689  0.83566698     0.24700
C329        C  0.44952957  0.90298613  0.86127473    -0.23300
C330        C  0.39996930  0.86144876  0.86693001     0.19600
F331        F  0.37060635  0.86302161  0.89151854    -0.13300
F332        F  0.33141684  0.77941661  0.85213266    -0.15600
F333        F  0.02764488  0.93882063  0.83024729    -0.15600
F334        F  0.48802905  0.85773182  0.79006530    -0.13100
C335        C  0.14572295  0.60791160  0.81387280     0.24700
C336        C  0.18514417  0.59693291  0.81862682    -0.23400
C337        C  0.18067158  0.56501400  0.84452498     0.19600
C338        C  0.13764524  0.54447488  0.86512223     0.24700
C339        C  0.09821537  0.55509041  0.85996051    -0.23300
C340        C  0.10274709  0.58705107  0.83420871     0.19600
F341        F  0.06554538  0.59839399  0.82871621    -0.13300
F342        F  0.14773256  0.63746016  0.78873912    -0.15600
F343        F  0.13357275  0.51261699  0.88933284    -0.15600
F344        F  0.21795900  0.55382876  0.84998919    -0.13300
C345        C  0.39354060  0.54540738  0.81501942     0.24700
C346        C  0.40727853  0.59719863  0.81830815    -0.23400
C347        C  0.44133153  0.62693010  0.84277048     0.19600
C348        C  0.46141360  0.60525850  0.86336281     0.24700
C349        C  0.44819420  0.55384934  0.85949621    -0.23300
C350        C  0.41392373  0.52409691  0.83536821     0.19600
F351        F  0.39851440  0.97355889  0.83242826    -0.13300
F352        F  0.36174048  0.51561265  0.79128275    -0.15600
F353        F  0.99509356  0.63491265  0.88633310    -0.15600
F354        F  0.45511296  0.67681399  0.84679383    -0.13300
C355        C  0.39787372  0.85725028  0.68415928     0.24700
C356        C  0.41321990  0.82036597  0.68204891    -0.23400
C357        C  0.45017977  0.82687111  0.65849521     0.19600
C358        C  0.47074829  0.86891257  0.63744169     0.24700
C359        C  0.45534533  0.90548082  0.63988608    -0.23300
C360        C  0.41884494  0.89928275  0.66340375     0.19600
F361        F  0.40334043  0.93410084  0.66635469    -0.13300
F362        F  0.36379675  0.85388292  0.70713168    -0.15600
F363        F  0.50728570  0.87507377  0.61557162    -0.15600
F364        F  0.46667921  0.79281952  0.65589124    -0.13300
C365        C  0.14988213  0.54784786  0.68605531     0.24700
C366        C  0.18949152  0.59908677  0.68222105    -0.23400
C367        C  0.18617571  0.62873340  0.65743135     0.19600
C368        C  0.14377800  0.60770851  0.63720447     0.24700
C369        C  0.10399114  0.55694745  0.64163752    -0.23300
C370        C  0.10761356  0.52713192  0.66599927     0.19600
F371        F  0.07014792  0.97737521  0.66993021    -0.13300
F372        F  0.15107537  0.51796576  0.70991882    -0.15600
F373        F  0.14090399  0.63735248  0.61387425    -0.15600
F374        F  0.22401989  0.67787071  0.65263362    -0.13300
C375        C  0.46138141  0.61443858  0.68054489     0.24700
C376        C  0.40823263  0.59571831  0.68036235    -0.23400
C377        C  0.37792353  0.55650831  0.65830876     0.19600
C378        C  0.40035782  0.53664849  0.63714958     0.24700
C379        C  0.45309743  0.55498362  0.63811301    -0.23300
C380        C  0.48329501  0.59408241  0.65980916     0.19600
F381        F  0.03436783  0.61244337  0.66114012    -0.13300
F382        F  0.49236084  0.65124128  0.70172647    -0.15600
F383        F  0.37013261  0.99734662  0.61724358    -0.15600
F384        F  0.32665985  0.53704994  0.65736261    -0.13300
C385        C  0.45764028  0.98029203  0.51963185     0.24700
C386        C  0.00600078  0.00293050  0.53415450    -0.23400
C387        C  0.05008594  0.52421215  0.51337548     0.19600
C388        C  0.04455136  0.52044650  0.47984071     0.24700
C389        C  0.99562147  0.99578643  0.46523472    -0.23300
C390        C  0.45232132  0.97703397  0.48605827     0.19600
F391        F  0.40412496  0.95567926  0.47508364    -0.13300
F392        F  0.41449089  0.96081803  0.53821374    -0.15600
F393        F  0.08766001  0.54110225  0.46115553    -0.15600
F394        F  0.09851744  0.54776228  0.52415198    -0.13300
C395        C  0.02454025  0.98096625  0.97924567     0.24700
C396        C  0.99773329  0.00296928  0.96562276    -0.23400
C397        C  0.47370520  0.52142281  0.98710635     0.19600
C398        C  0.47693518  0.51789204  0.02048597     0.24700
C399        C  0.00305586  0.99493440  0.03416623    -0.23300
C400        C  0.02748403  0.97715170  0.01268430     0.19600
F401        F  0.05543268  0.95678484  0.02296546    -0.13300
F402        F  0.04823828  0.96253883  0.95989063    -0.15600
F403        F  0.45409899  0.53730110  0.03979583    -0.15600
F404        F  0.44591572  0.54206563  0.97702431    -0.13300
C405        C  0.03564098  0.88177973  0.31797039     0.24700
C406        C  0.08731854  0.89585730  0.32072887    -0.23400
C407        C  0.11710269  0.93160826  0.34454888     0.19600
C408        C  0.09566382  0.95327342  0.36494997     0.24700
C409        C  0.04458432  0.94050504  0.36124584    -0.23300
C410        C  0.01469760  0.90432903  0.33779761     0.19600
F411        F  0.96512541  0.89096735  0.33394518    -0.13300
F412        F  0.00600587  0.84812294  0.29487950    -0.15600
F413        F  0.12502707  0.48813991  0.38754645    -0.15600
F414        F  0.16695900  0.94570103  0.34794655    -0.13300
C415        C  0.32199115  0.87496683  0.33812892     0.24700
C416        C  0.31389534  0.90665175  0.31734016    -0.23400
C417        C  0.34892371  0.95974035  0.31725818     0.19600
C418        C  0.39179687  0.98043825  0.33699544     0.24700
C419        C  0.39971020  0.94865073  0.35756470    -0.23300
C420        C  0.36428172  0.89597025  0.35837506     0.19600
F421        F  0.37148802  0.86471961  0.37817666    -0.13300
F422        F  0.28888754  0.82370678  0.33893544    -0.15600
F423        F  0.42541298  0.03159606  0.33622941    -0.15600
F424        F  0.34282015  0.99137731  0.29713044    -0.13300
C425        C  0.03947693  0.63375792  0.36346246     0.24700
C426        C  0.05373625  0.59633663  0.36102099    -0.23400
C427        C  0.09180696  0.60289670  0.33859548     0.19600
C428        C  0.11460963  0.64574766  0.31837520     0.24700
C429        C  0.09893289  0.68230184  0.31983336    -0.23300
C430        C  0.06159164  0.67621603  0.34284686     0.19600
F431        F  0.04620403  0.71117609  0.34517757    -0.13300
F432        F  0.00237569  0.62792548  0.38475201    -0.15600
F433        F  0.15008263  0.65002444  0.29620244    -0.15600
F434        F  0.10663973  0.56751527  0.33609843    -0.13300
C435        C  0.10062204  0.95539795  0.13757759     0.24700
C436        C  0.04933794  0.94247103  0.14113761    -0.23400
C437        C  0.01874397  0.90768322  0.16526159     0.19600
C438        C  0.03901788  0.88598582  0.18555894     0.24700
C439        C  0.09059179  0.89924107  0.18237428    -0.23300
C440        C  0.12129088  0.93442148  0.15825965     0.19600
F441        F  0.17132601  0.94865037  0.15474296    -0.13300
F442        F  0.13118932  0.98981315  0.11483642    -0.15600
F443        F  0.00866553  0.85368538  0.20927141    -0.15600
F444        F  0.46901625  0.89445736  0.16910514    -0.13300
C445        C  0.35049710  0.95718665  0.18051953     0.24700
C446        C  0.31296701  0.90487818  0.17881971    -0.23400
C447        C  0.31919791  0.87367553  0.15585478     0.19600
C448        C  0.36244124  0.89415542  0.13558383     0.24700
C449        C  0.40046169  0.94583820  0.13826783    -0.23300
C450        C  0.39392332  0.97727984  0.16057683     0.19600
F451        F  0.42969762  0.52794418  0.16317123    -0.13300
F452        F  0.34663220  0.98853581  0.20262413    -0.15600
F453        F  0.36833913  0.86298272  0.11436960    -0.15600
F454        F  0.28384539  0.82317321  0.15330138    -0.13300
C455        C  0.03793750  0.63099943  0.13640825     0.24700
C456        C  0.05302697  0.59428494  0.13870876    -0.23400
C457        C  0.08944301  0.60084062  0.16155381     0.19600
C458        C  0.11048604  0.64334355  0.18199751     0.24700
C459        C  0.09490111  0.67996239  0.18035971    -0.23300
C460        C  0.05829742  0.67329734  0.15730807     0.19600
F461        F  0.04197992  0.70745048  0.15510930    -0.13300
F462        F  0.50188545  0.62468524  0.11488876    -0.15600
F463        F  0.14443978  0.64725864  0.20444695    -0.15600
F464        F  0.10449087  0.56574081  0.16422936    -0.13300
Fe465      Fe  0.70214482  0.40413835  0.25045409     1.65800
Fe466      Fe  0.70587569  0.29290892  0.24877709     1.73200
Fe467      Fe  0.59066904  0.28821559  0.25050652     1.54400
O468        O  0.58380823  0.33018298  0.28772973    -0.80500
O469        O  0.65919689  0.23895777  0.21553564    -0.78800
O470        O  0.65407045  0.40721284  0.28543662    -0.83000
O471        O  0.65822694  0.40762450  0.21414858    -0.77900
O472        O  0.58757535  0.23677077  0.28440183    -0.79700
O473        O  0.75199810  0.33680248  0.21108327    -0.82400
C474        C  0.61223143  0.37910082  0.20565714     0.98300
C475        C  0.61004104  0.37632074  0.29700861     1.05800
O476        O  0.66620372  0.32843914  0.24994684    -1.11400
O477        O  0.75846933  0.34150098  0.28205017    -0.73800
O478        O  0.75090458  0.41071529  0.28658993    -0.77300
O479        O  0.58363925  0.33459566  0.21717161    -0.78000
C480        C  0.77140707  0.38485302  0.29435210     0.97300
O481        O  0.75549147  0.41181418  0.21581444    -0.76000
O482        O  0.66453177  0.24436766  0.28615780    -0.81200
C483        C  0.61518807  0.22299798  0.20401573     0.99900
C484        C  0.61841968  0.22424376  0.29570683     1.05800
O485        O  0.58696984  0.24076633  0.21298178    -0.76800
C486        C  0.77027626  0.38318259  0.20294706     1.04100
C487        C  0.50394710  0.99257004  0.07122969     0.87600
C488        C  0.52929147  0.46561217  0.08763341    -0.52600
C489        C  0.52734761  0.46645496  0.12059728     0.10500
C490        C  0.50105656  0.99387127  0.13442055     0.21500
C491        C  0.94901970  0.46526987  0.08598914    -0.53300
C492        C  0.94760627  0.46690749  0.11888481     0.10700
C493        C  0.53050783  0.04671077  0.08621555    -0.52900
C494        C  0.52903546  0.04716779  0.11915523     0.11200
H495        H  0.54666132  0.44627309  0.07573389     0.15700
H496        H  0.49984814  0.99454539  0.16127456     0.01500
H497        H  0.91459172  0.44760627  0.07162674     0.16000
H498        H  0.54935213  0.08159208  0.07196521     0.15800
C499        C  0.49408346  0.49430652  0.42825038     0.87600
C500        C  0.52360557  0.04839394  0.41329135    -0.52600
C501        C  0.52699453  0.04913657  0.38035268     0.10500
C502        C  0.49969924  0.99589681  0.36478304     0.21500
C503        C  0.94160311  0.46954356  0.41148508    -0.53300
C504        C  0.94480698  0.47042370  0.37860539     0.10700
C505        C  0.51996633  0.46577256  0.41368311    -0.52900
C506        C  0.52254473  0.46637300  0.38071898     0.11200
H507        H  0.54099585  0.08312914  0.42773101     0.15700
H508        H  0.50192917  0.99657842  0.33793820     0.01500
H509        H  0.90470540  0.45371440  0.42299806     0.16000
H510        H  0.53440002  0.44625273  0.42822954     0.15800
Fe511      Fe  0.79666161  0.09534859  0.75048249     1.65800
Fe512      Fe  0.79866967  0.20900012  0.75032518     1.73200
Fe513      Fe  0.91056643  0.20808155  0.74983038     1.54400
O514        O  0.91389251  0.16640797  0.78807566    -0.80500
O515        O  0.84950718  0.26434331  0.71888572    -0.78800
O516        O  0.84431374  0.08975181  0.78259259    -0.83000
O517        O  0.83838511  0.08967837  0.71191921    -0.77900
O518        O  0.91604543  0.26239845  0.78232354    -0.79700
O519        O  0.75447511  0.16841304  0.71131128    -0.82400
C520        C  0.88556872  0.11589014  0.70436564     0.98300
C521        C  0.88698909  0.11937861  0.79542706     1.05800
O522        O  0.83531643  0.17076738  0.75016911    -1.11400
O523        O  0.74204682  0.15968712  0.78169196    -0.73800
O524        O  0.75042027  0.09167496  0.78914395    -0.77300
O525        O  0.91522741  0.15880991  0.71732544    -0.78000
C526        C  0.72876976  0.11743062  0.79538410     0.97300
O527        O  0.74343960  0.09060408  0.71846837    -0.76000
O528        O  0.83891405  0.25327371  0.78950930    -0.81200
C529        C  0.89194378  0.27683494  0.70523882     0.99900
C530        C  0.88602286  0.27444930  0.79623998     1.05800
O531        O  0.91675190  0.25455430  0.71152441    -0.76800
C532        C  0.73218604  0.12088006  0.70483850     1.04100
C533        C  0.49618515  0.50517398  0.92852142     0.87600
C534        C  0.96873500  0.45102901  0.91362764    -0.52600
C535        C  0.97007281  0.45034373  0.88068566     0.10500
C536        C  0.49763827  0.50372280  0.86537767     0.21500
C537        C  0.55054322  0.03218873  0.91304386    -0.53300
C538        C  0.55090163  0.03120348  0.88003361     0.10700
C539        C  0.97067062  0.03255995  0.91280705    -0.52900
C540        C  0.97095176  0.03104983  0.87992254     0.11200
H541        H  0.95127673  0.41628598  0.92801735     0.15700
H542        H  0.49803168  0.50313951  0.83853347     0.01500
H543        H  0.58538999  0.05092664  0.92696784     0.16000
H544        H  0.95418449  0.05247219  0.92507200     0.15800
C545        C  0.50876768  0.50608000  0.57152251     0.87600
C546        C  0.97889525  0.03123269  0.58579541    -0.52600
C547        C  0.97667082  0.03091100  0.61875572     0.10500
C548        C  0.50393461  0.50592604  0.63469354     0.21500
C549        C  0.56087153  0.03515154  0.58771826    -0.53300
C550        C  0.55829345  0.03430935  0.62062461     0.10700
C551        C  0.98298549  0.45222776  0.58691960    -0.52900
C552        C  0.98010910  0.45234567  0.61988661     0.11200
H553        H  0.96224013  0.04865193  0.57127219     0.15700
H554        H  0.50199323  0.50605438  0.66154593     0.01500
H555        H  0.59750769  0.05526929  0.57583429     0.16000
H556        H  0.96754320  0.41713213  0.57291448     0.15800
C557        C  0.87896115  0.31892376  0.84610256     0.24700
C558        C  0.90806023  0.31687223  0.81990615    -0.23400
C559        C  0.95847933  0.35753343  0.81527102     0.19600
C560        C  0.97869928  0.40004733  0.83560268     0.24700
C561        C  0.94918091  0.40296092  0.86111562    -0.23300
C562        C  0.89947151  0.36160266  0.86666146     0.19600
F563        F  0.87003468  0.36337523  0.89112968    -0.13300
F564        F  0.83075006  0.27970210  0.85178358    -0.15600
F565        F  0.52743619  0.43846707  0.83026181    -0.15600
F566        F  0.98775927  0.35731840  0.79013661    -0.13100
C567        C  0.64521072  0.10766288  0.81346554     0.24700
C568        C  0.68480217  0.09699222  0.81835949    -0.23400
C569        C  0.68058943  0.06545672  0.84441586     0.19600
C570        C  0.63762942  0.04496829  0.86504565     0.24700
C571        C  0.59801561  0.05526937  0.85976509    -0.23300
C572        C  0.60228649  0.08685513  0.83384503     0.19600
F573        F  0.56490645  0.09789996  0.82824121    -0.13300
F574        F  0.64702566  0.13684704  0.78816632    -0.15600
F575        F  0.63381422  0.01346354  0.88941732    -0.15600
F576        F  0.71808556  0.05461938  0.85000869    -0.13300
C577        C  0.89239675  0.04493294  0.81569410     0.24700
C578        C  0.90666469  0.09691520  0.81866097    -0.23400
C579        C  0.94135958  0.12688345  0.84279405     0.19600
C580        C  0.96156128  0.10527139  0.86334485     0.24700
C581        C  0.94782838  0.05368445  0.85976704    -0.23300
C582        C  0.91294970  0.02370203  0.83597723     0.19600
F583        F  0.89984578  0.47408261  0.83158040    -0.13300
F584        F  0.85994756  0.01485663  0.79230180    -0.15600
F585        F  0.49589830  0.13514684  0.88595249    -0.15600
F586        F  0.95572468  0.17696868  0.84650667    -0.13300
C587        C  0.89774273  0.35690773  0.68394683     0.24700
C588        C  0.91348281  0.32030662  0.68206555    -0.23400
C589        C  0.95102600  0.32723931  0.65884726     0.19600
C590        C  0.97169938  0.36936016  0.63785100     0.24700
C591        C  0.95584137  0.40560123  0.64004213    -0.23300
C592        C  0.91884503  0.39903858  0.66327153     0.19600
F593        F  0.90297611  0.43359537  0.66601150    -0.13300
F594        F  0.86313027  0.35317221  0.70662706    -0.15600
F595        F  0.00875792  0.37592400  0.61629452    -0.15600
F596        F  0.96799985  0.29354180  0.65652291    -0.13300
C597        C  0.64973646  0.04754549  0.68570279     0.24700
C598        C  0.68952009  0.09867789  0.68178329    -0.23400
C599        C  0.68640115  0.12825167  0.65686167     0.19600
C600        C  0.64398799  0.10730059  0.63662596     0.24700
C601        C  0.60397863  0.05665698  0.64116736    -0.23300
C602        C  0.60746134  0.02689366  0.66563977     0.19600
F603        F  0.57048869  0.47750831  0.67015594    -0.13300
F604        F  0.65074161  0.01773402  0.70968394    -0.15600
F605        F  0.64130596  0.13695102  0.61322278    -0.15600
F606        F  0.72444710  0.17726875  0.65196150    -0.13300
C607        C  0.96149834  0.11464081  0.68046156     0.24700
C608        C  0.90827800  0.09558427  0.68053016    -0.23400
C609        C  0.87785590  0.05604899  0.65869667     0.19600
C610        C  0.90024431  0.03622442  0.63749091     0.24700
C611        C  0.95305991  0.05491568  0.63818826    -0.23300
C612        C  0.98337511  0.09429185  0.65968296     0.19600
F613        F  0.53451598  0.11293031  0.66076160    -0.13300
F614        F  0.99259597  0.15178875  0.70142065    -0.15600
F615        F  0.87034639  0.49807442  0.61668974    -0.15600
F616        F  0.82652079  0.03623078  0.65801126    -0.13300
C617        C  0.95829797  0.47782005  0.51991827     0.24700
C618        C  0.50680537  0.50344205  0.53432560    -0.23400
C619        C  0.54916412  0.02032826  0.51335694     0.19600
C620        C  0.54390918  0.01750524  0.47979494     0.24700
C621        C  0.49604490  0.49580688  0.46543566    -0.23300
C622        C  0.95278094  0.47365816  0.48636624     0.19600
F623        F  0.90445925  0.44655049  0.47550337    -0.13300
F624        F  0.91520619  0.45596216  0.53862007    -0.15600
F625        F  0.58701290  0.03590952  0.46124569    -0.15600
F626        F  0.59692014  0.03821939  0.52439199    -0.13300
C627        C  0.52275825  0.47935339  0.97918868     0.24700
C628        C  0.49734782  0.50283680  0.96557457    -0.23400
C629        C  0.97259938  0.01993215  0.98712251     0.19600
C630        C  0.97620572  0.01685921  0.02050984     0.24700
C631        C  0.50247563  0.49457703  0.03412272    -0.23300
C632        C  0.52536878  0.47516823  0.01262193     0.19600
F633        F  0.55093456  0.45221802  0.02285979    -0.13300
F634        F  0.54531799  0.45973473  0.95981625    -0.15600
F635        F  0.95232003  0.03517396  0.03979097    -0.15600
F636        F  0.94246902  0.03786411  0.97696519    -0.13300
C637        C  0.53524341  0.38150659  0.31819690     0.24700
C638        C  0.58697462  0.39572126  0.32087067    -0.23400
C639        C  0.61677295  0.43146598  0.34468884     0.19600
C640        C  0.59531939  0.45302849  0.36515061     0.24700
C641        C  0.54420139  0.44015274  0.36151986    -0.23300
C642        C  0.51427375  0.40394219  0.33810107     0.19600
F643        F  0.46465000  0.39047050  0.33434161    -0.13300
F644        F  0.50558173  0.34785537  0.29511131    -0.15600
F645        F  0.62533921  0.98834657  0.38737365    -0.15600
F646        F  0.66667831  0.44569559  0.34800698    -0.13300
C647        C  0.82138394  0.37537514  0.33867484     0.24700
C648        C  0.81372335  0.40707257  0.31762616    -0.23400
C649        C  0.84907923  0.46008319  0.31739517     0.19600
C650        C  0.89186728  0.48066985  0.33721640     0.24700
C651        C  0.89935874  0.44886123  0.35803336    -0.23300
C652        C  0.86357813  0.39627946  0.35900910     0.19600
F653        F  0.87040284  0.36499277  0.37901416    -0.13300
F654        F  0.78798266  0.32418596  0.33961769    -0.15600
F655        F  0.92586143  0.53172696  0.33624238    -0.15600
F656        F  0.84341367  0.49171852  0.29701180    -0.13300
C657        C  0.53971663  0.13414607  0.36360086     0.24700
C658        C  0.55390362  0.09667342  0.36106994    -0.23400
C659        C  0.59187707  0.10321678  0.33856587     0.19600
C660        C  0.61462704  0.14606722  0.31835062     0.24700
C661        C  0.59900776  0.18265850  0.31988937    -0.23300
C662        C  0.56179845  0.17662509  0.34299296     0.19600
F663        F  0.54649778  0.21164542  0.34541038    -0.13300
F664        F  0.50268846  0.12832862  0.38494802    -0.15600
F665        F  0.64997353  0.15029336  0.29609187    -0.15600
F666        F  0.60663437  0.06778808  0.33596144    -0.13300
C667        C  0.60007715  0.45547354  0.13767354     0.24700
C668        C  0.54881779  0.44262221  0.14133188    -0.23400
C669        C  0.51838048  0.40806411  0.16560498     0.19600
C670        C  0.53872278  0.38637170  0.18585936     0.24700
C671        C  0.59022023  0.39944615  0.18250889    -0.23300
C672        C  0.62081427  0.43451842  0.15832366     0.19600
F673        F  0.67079926  0.44861446  0.15468890    -0.13300
F674        F  0.63055761  0.48978122  0.11485742    -0.15600
F675        F  0.50852958  0.35423909  0.20968577    -0.15600
F676        F  0.96873037  0.39502787  0.16962261    -0.13300
C677        C  0.85023100  0.45773508  0.18050583     0.24700
C678        C  0.81254126  0.40550171  0.17876285    -0.23400
C679        C  0.81840381  0.37427855  0.15564330     0.19600
C680        C  0.86156094  0.39462262  0.13531537     0.24700
C681        C  0.89983315  0.44619343  0.13809091    -0.23300
C682        C  0.89356523  0.47770814  0.16049103     0.19600
F683        F  0.92986192  0.02758798  0.16321350    -0.13300
F684        F  0.84663265  0.48907548  0.20274357    -0.15600
F685        F  0.86714386  0.36339910  0.11397714    -0.15600
F686        F  0.78277540  0.32387386  0.15301332    -0.13300
C687        C  0.53816117  0.13090696  0.13658999     0.24700
C688        C  0.55345868  0.09434763  0.13883909    -0.23400
C689        C  0.59009510  0.10114453  0.16158893     0.19600
C690        C  0.61119027  0.14377289  0.18195165     0.24700
C691        C  0.59536487  0.18021816  0.18037143    -0.23300
C692        C  0.55852581  0.17328224  0.15742737     0.19600
F693        F  0.54197861  0.20725584  0.15527033    -0.13300
F694        F  0.00189490  0.12436122  0.11517884    -0.15600
F695        F  0.64544274  0.14798552  0.20426602    -0.15600
F696        F  0.60532000  0.06617688  0.16424215    -0.13300
Fe697      Fe  0.70235112  0.90376342  0.25031922     1.65800
Fe698      Fe  0.70576622  0.79240698  0.24866334     1.73200
Fe699      Fe  0.59073209  0.78805879  0.25056216     1.54400
O700        O  0.58415588  0.82999362  0.28792381    -0.80500
O701        O  0.65875483  0.73838982  0.21558713    -0.78800
O702        O  0.65418835  0.90714255  0.28513740    -0.83000
O703        O  0.65869532  0.90722848  0.21384476    -0.77900
O704        O  0.58756520  0.73639662  0.28430571    -0.79700
O705        O  0.75176637  0.83601347  0.21082838    -0.82400
C706        C  0.61254631  0.87892281  0.20558663     0.98300
C707        C  0.61032143  0.87627551  0.29694012     1.05800
O708        O  0.66625672  0.82808989  0.24988833    -1.11400
O709        O  0.75865275  0.84113916  0.28174483    -0.73800
O710        O  0.75076412  0.91014282  0.28659911    -0.77300
O711        O  0.58377928  0.83464600  0.21736653    -0.78000
C712        C  0.77146708  0.88438877  0.29416935     0.97300
O713        O  0.75590525  0.91127148  0.21586001    -0.76000
O714        O  0.66455929  0.74410362  0.28618111    -0.81200
C715        C  0.61483082  0.72270297  0.20401159     0.99900
C716        C  0.61840596  0.72390516  0.29566048     1.05800
O717        O  0.58681132  0.74072706  0.21291733    -0.76800
C718        C  0.77047047  0.88252938  0.20288351     1.04100
C719        C  0.50344735  0.49237730  0.07118725     0.87600
C720        C  0.52982848  0.96574386  0.08754827    -0.52600
C721        C  0.52804046  0.96657279  0.12051708     0.10500
C722        C  0.50038652  0.49385635  0.13436958     0.21500
C723        C  0.94954091  0.96522686  0.08610144    -0.53300
C724        C  0.94821461  0.96680663  0.11900516     0.10700
C725        C  0.53015309  0.54657594  0.08612109    -0.52900
C726        C  0.52852204  0.54710742  0.11905321     0.11200
H727        H  0.54654361  0.94589777  0.07557269     0.15700
H728        H  0.49910383  0.49461078  0.16121755     0.01500
H729        H  0.91505689  0.94737990  0.07179668     0.16000
H730        H  0.54919716  0.58142946  0.07184951     0.15800
C731        C  0.49393918  0.99418817  0.42802442     0.87600
C732        C  0.52367171  0.54843310  0.41335208    -0.52600
C733        C  0.52691088  0.54892189  0.38041096     0.10500
C734        C  0.49937672  0.49555103  0.36500948     0.21500
C735        C  0.94159327  0.96905409  0.41109164    -0.53300
C736        C  0.94503801  0.97046227  0.37823468     0.10700
C737        C  0.51996536  0.96575089  0.41342753    -0.52900
C738        C  0.52288185  0.96668950  0.38046096     0.11200
H739        H  0.54108330  0.58329989  0.42766156     0.15700
H740        H  0.50144305  0.49603614  0.33815719     0.01500
H741        H  0.90439521  0.95122177  0.42249634     0.16000
H742        H  0.53416161  0.94597454  0.42793573     0.15800
Fe743      Fe  0.79691167  0.59558277  0.75050285     1.65800
Fe744      Fe  0.79890597  0.70920534  0.75061644     1.73200
Fe745      Fe  0.91075274  0.70830575  0.74968592     1.54400
O746        O  0.91426142  0.66677250  0.78794999    -0.80500
O747        O  0.84968540  0.76475040  0.71922841    -0.78800
O748        O  0.84488386  0.58997977  0.78231516    -0.83000
O749        O  0.83830326  0.58995015  0.71169076    -0.77900
O750        O  0.91644783  0.76279533  0.78213552    -0.79700
O751        O  0.75468800  0.66882409  0.71159271    -0.82400
C752        C  0.88551605  0.61605282  0.70418369     0.98300
C753        C  0.88751929  0.61967227  0.79517175     1.05800
O754        O  0.83553778  0.67098108  0.75022613    -1.11400
O755        O  0.74232258  0.65969042  0.78194244    -0.73800
O756        O  0.75096501  0.59184979  0.78940058    -0.77300
O757        O  0.91524063  0.65889007  0.71721574    -0.78000
C758        C  0.72916566  0.61747008  0.79565052     0.97300
O759        O  0.74345543  0.59094381  0.71877802    -0.76000
O760        O  0.83921440  0.75318518  0.78984699    -0.81200
C761        C  0.89186178  0.77699254  0.70528880     0.99900
C762        C  0.88642407  0.77459233  0.79632508     1.05800
O763        O  0.91656069  0.75450889  0.71131989    -0.76800
C764        C  0.73224307  0.62126794  0.70518241     1.04100
C765        C  0.49646957  0.00530739  0.92858650     0.87600
C766        C  0.96919471  0.95114169  0.91375164    -0.52600
C767        C  0.97025819  0.95038719  0.88081003     0.10500
C768        C  0.49744952  0.00371891  0.86544557     0.21500
C769        C  0.55036623  0.53181486  0.91313518    -0.53300
C770        C  0.55097057  0.53095585  0.88012487     0.10700
C771        C  0.97056902  0.53252637  0.91262150    -0.52900
C772        C  0.97120775  0.53119210  0.87973611     0.11200
H773        H  0.95208605  0.91644467  0.92818024     0.15700
H774        H  0.49760580  0.00304652  0.83860370     0.01500
H775        H  0.58510409  0.55031907  0.92717032     0.16000
H776        H  0.95341392  0.55184265  0.92474618     0.15800
C777        C  0.50808325  0.00582100  0.57132746     0.87600
C778        C  0.97917704  0.53115402  0.58582674    -0.52600
C779        C  0.97674490  0.53088200  0.61878570     0.10500
C780        C  0.50384029  0.00579776  0.63449908     0.21500
C781        C  0.56139927  0.53525365  0.58811907    -0.53300
C782        C  0.55846830  0.53457825  0.62100393     0.10700
C783        C  0.98214999  0.95201579  0.58672707    -0.52900
C784        C  0.97965310  0.95219503  0.61970082     0.11200
H785        H  0.96243015  0.54833940  0.57117025     0.15700
H786        H  0.50211369  0.00596996  0.66135324     0.01500
H787        H  0.59821211  0.55414590  0.57655198     0.16000
H788        H  0.96631806  0.91690506  0.57270945     0.15800
C789        C  0.87950924  0.81879770  0.84635524     0.24700
C790        C  0.90851505  0.81695201  0.82003057    -0.23400
C791        C  0.95883252  0.85776173  0.81531012     0.19600
C792        C  0.97900678  0.90024676  0.83566704     0.24700
C793        C  0.94952954  0.90298605  0.86127474    -0.23300
C794        C  0.89996922  0.86144873  0.86692998     0.19600
F795        F  0.87060626  0.86302160  0.89151848    -0.13300
F796        F  0.83141662  0.77941676  0.85213247    -0.15600
F797        F  0.52764483  0.93882081  0.83024716    -0.15600
F798        F  0.98802912  0.85773162  0.79006543    -0.13100
C799        C  0.64572276  0.60791131  0.81387263     0.24700
C800        C  0.68514408  0.59693280  0.81862668    -0.23400
C801        C  0.68067163  0.56501403  0.84452489     0.19600
C802        C  0.63764528  0.54447481  0.86512214     0.24700
C803        C  0.59821529  0.55509017  0.85996040    -0.23300
C804        C  0.60274690  0.58705073  0.83420856     0.19600
F805        F  0.56554512  0.59839354  0.82871604    -0.13300
F806        F  0.64773226  0.63745977  0.78873892    -0.15600
F807        F  0.63357294  0.51261705  0.88933279    -0.15600
F808        F  0.71795925  0.55382911  0.84998919    -0.13300
C809        C  0.89354087  0.54540760  0.81501925     0.24700
C810        C  0.90727850  0.59719874  0.81830812    -0.23400
C811        C  0.94133122  0.62693014  0.84277060     0.19600
C812        C  0.96141328  0.60525854  0.86336295     0.24700
C813        C  0.94819418  0.55384949  0.85949620    -0.23300
C814        C  0.91392397  0.52409714  0.83536806     0.19600
F815        F  0.89851442  0.97355892  0.83242829    -0.13300
F816        F  0.86174109  0.51561299  0.79128242    -0.15600
F817        F  0.49509418  0.63491270  0.88633280    -0.15600
F818        F  0.95511242  0.67681394  0.84679406    -0.13300
C819        C  0.89787394  0.85725047  0.68415941     0.24700
C820        C  0.91321996  0.82036605  0.68204889    -0.23400
C821        C  0.95017967  0.82687113  0.65849508     0.19600
C822        C  0.97074813  0.86891261  0.63744156     0.24700
C823        C  0.95534530  0.90548096  0.63988609    -0.23300
C824        C  0.91884514  0.89928298  0.66340390     0.19600
F825        F  0.90334077  0.93410117  0.66635500    -0.13300
F826        F  0.86379710  0.85388315  0.70713190    -0.15600
F827        F  0.00728538  0.87507375  0.61557139    -0.15600
F828        F  0.96667903  0.79281949  0.65589100    -0.13300
C829        C  0.64988210  0.54784806  0.68605527     0.24700
C830        C  0.68949150  0.59908696  0.68222100    -0.23400
C831        C  0.68617564  0.62873363  0.65743134     0.19600
C832        C  0.64377792  0.60770874  0.63720446     0.24700
C833        C  0.60399106  0.55694768  0.64163753    -0.23300
C834        C  0.60761350  0.52713214  0.66599927     0.19600
F835        F  0.57014792  0.97737534  0.66993041    -0.13300
F836        F  0.65107533  0.51796598  0.70991879    -0.15600
F837        F  0.64090393  0.63735271  0.61387425    -0.15600
F838        F  0.72401975  0.67787099  0.65263367    -0.13300
C839        C  0.96138133  0.61443781  0.68054544     0.24700
C840        C  0.90823271  0.59571829  0.68036237    -0.23400
C841        C  0.87792380  0.55650901  0.65830833     0.19600
C842        C  0.90035814  0.53664916  0.63714921     0.24700
C843        C  0.95309758  0.55498359  0.63811312    -0.23300
C844        C  0.98329497  0.59408166  0.65980974     0.19600
F845        F  0.53436802  0.61244473  0.66113909    -0.13300
F846        F  0.99236051  0.65123976  0.70172750    -0.15600
F847        F  0.87013259  0.99734621  0.61724404    -0.15600
F848        F  0.82666029  0.53705146  0.65736164    -0.13300
C849        C  0.95764035  0.98029268  0.51963179     0.24700
C850        C  0.50600078  0.00293043  0.53415452    -0.23400
C851        C  0.55008603  0.52421239  0.51337548     0.19600
C852        C  0.54455148  0.52044671  0.47984071     0.24700
C853        C  0.49562136  0.99578636  0.46523474    -0.23300
C854        C  0.95232146  0.97703477  0.48605822     0.19600
F855        F  0.90412523  0.95568122  0.47508354    -0.13300
F856        F  0.91449095  0.96081915  0.53821364    -0.15600
F857        F  0.58766016  0.54110252  0.46115555    -0.15600
F858        F  0.59851752  0.54776268  0.52415200    -0.13300
C859        C  0.52454020  0.98096629  0.97924561     0.24700
C860        C  0.49773337  0.00296947  0.96562272    -0.23400
C861        C  0.97370548  0.52142333  0.98710638     0.19600
C862        C  0.97693530  0.51789236  0.02048600     0.24700
C863        C  0.50305592  0.99493451  0.03416620    -0.23300
C864        C  0.52748393  0.97715166  0.01268425     0.19600
F865        F  0.55543231  0.95678449  0.02296538    -0.13300
F866        F  0.54823814  0.96253879  0.95989055    -0.15600
F867        F  0.95409919  0.53730149  0.03979587    -0.15600
F868        F  0.94591650  0.54206671  0.97702435    -0.13300
C869        C  0.53564097  0.88177976  0.31797040     0.24700
C870        C  0.58731854  0.89585735  0.32072891    -0.23400
C871        C  0.61710268  0.93160838  0.34454888     0.19600
C872        C  0.59566378  0.95327352  0.36494997     0.24700
C873        C  0.54458427  0.94050511  0.36124583    -0.23300
C874        C  0.51469758  0.90432911  0.33779758     0.19600
F875        F  0.46512542  0.89096747  0.33394508    -0.13300
F876        F  0.50600589  0.84812297  0.29487951    -0.15600
F877        F  0.62502711  0.48813963  0.38754653    -0.15600
F878        F  0.66695903  0.94570129  0.34794651    -0.13300
C879        C  0.82199111  0.87496684  0.33812899     0.24700
C880        C  0.81389545  0.90665173  0.31734012    -0.23400
C881        C  0.84892401  0.95974028  0.31725796     0.19600
C882        C  0.89179716  0.98043817  0.33699523     0.24700
C883        C  0.89971028  0.94865070  0.35756467    -0.23300
C884        C  0.86428166  0.89597026  0.35837514     0.19600
F885        F  0.87148784  0.86471965  0.37817684    -0.13300
F886        F  0.78888738  0.82370682  0.33893561    -0.15600
F887        F  0.92541351  0.03159592  0.33622898    -0.15600
F888        F  0.84282067  0.99137717  0.29713002    -0.13300
C889        C  0.53947711  0.63375796  0.36346246     0.24700
C890        C  0.55373636  0.59633662  0.36102092    -0.23400
C891        C  0.59180693  0.60289661  0.33859531     0.19600
C892        C  0.61460953  0.64574754  0.31837501     0.24700
C893        C  0.59893294  0.68230184  0.31983329    -0.23300
C894        C  0.56159180  0.67621608  0.34284686     0.19600
F895        F  0.54620422  0.71117615  0.34517763    -0.13300
F896        F  0.50237591  0.62792551  0.38475204    -0.15600
F897        F  0.65008227  0.65002416  0.29620208    -0.15600
F898        F  0.60663962  0.56751512  0.33609818    -0.13300
C899        C  0.60062204  0.95539817  0.13757767     0.24700
C900        C  0.54933789  0.94247110  0.14113763    -0.23400
C901        C  0.51874393  0.90768326  0.16526160     0.19600
C902        C  0.53901790  0.88598592  0.18555897     0.24700
C903        C  0.59059183  0.89924127  0.18237435    -0.23300
C904        C  0.62129092  0.93442173  0.15825974     0.19600
F905        F  0.67132606  0.94865069  0.15474306    -0.13300
F906        F  0.63118935  0.98981350  0.11483657    -0.15600
F907        F  0.50866553  0.85368538  0.20927140    -0.15600
F908        F  0.96901631  0.89445740  0.16910513    -0.13300
C909        C  0.85049734  0.95718685  0.18051968     0.24700
C910        C  0.81296716  0.90487842  0.17881978    -0.23400
C911        C  0.81919802  0.87367579  0.15585483     0.19600
C912        C  0.86244140  0.89415564  0.13558393     0.24700
C913        C  0.90046192  0.94583838  0.13826798    -0.23300
C914        C  0.89392360  0.97728002  0.16057702     0.19600
F915        F  0.92969725  0.52794410  0.16317113    -0.13300
F916        F  0.84663247  0.98853597  0.20262432    -0.15600
F917        F  0.86833922  0.86298294  0.11436966    -0.15600
F918        F  0.78384535  0.82317353  0.15330130    -0.13300
C919        C  0.53793743  0.63099953  0.13640825     0.24700
C920        C  0.55302713  0.59428520  0.13870861    -0.23400
C921        C  0.58944346  0.60084107  0.16155348     0.19600
C922        C  0.61048650  0.64334400  0.18199719     0.24700
C923        C  0.59490133  0.67996267  0.18035956    -0.23300
C924        C  0.55829743  0.67329750  0.15730803     0.19600
F925        F  0.54197981  0.70745054  0.15510936    -0.13300
F926        F  0.00188584  0.62468536  0.11488857    -0.15600
F927        F  0.64444048  0.64725922  0.20444649    -0.15600
F928        F  0.60449157  0.56574144  0.16422887    -0.13300
loop_ 
_geom_bond_atom_site_label_1 
_geom_bond_atom_site_label_2 
_geom_bond_distance 
_geom_bond_site_symmetry_2 
_ccdc_geom_bond_type 
Fe1          O17   2.068       .  S
Fe1           O7   2.063       .  S
Fe1          O14   2.058       .  S
Fe1           O6   2.072       .  S
Fe1          O12   1.979       .  S
Fe2           O5   2.062       .  S
Fe2           O9   2.060       .  S
Fe2          O13   2.066       .  S
Fe2          O18   2.059       .  S
Fe2          O12   1.978       .  S
Fe3          O21   2.071       .  S
Fe3           O8   2.071       .  S
Fe3          O15   2.066       .  S
Fe3           O4   2.062       .  S
Fe3          O12   1.978       .  S
O4           C11   1.269       .  A
O5           C19   1.268       .  A
O6           C11   1.270       .  A
O7           C10   1.269       .  A
O8           C20   1.271       .  A
O9           C22   1.268       .  A
C10          O15   1.270       .  A
C10         C207   1.480       .  S
C11         C174   1.480       .  S
O13          C16   1.269       .  A
O14          C16   1.268       .  A
C16         C184   1.478       .  S
O17          C22   1.270       .  A
O18          C20   1.268       .  A
C19          O21   1.269       .  A
C19         C227   1.485       .  S
C20         C197   1.479       .  S
C22         C214   1.482       .  S
C23          C29   1.544   1_565  S
C23         C256   1.551       .  S
C23         C723   1.544   1_455  S
C23         C399   1.537       .  S
C24         C255   1.551       .  S
C24          H31   1.077       .  S
C24          C25   1.365       .  D
C25         C258   1.531       .  S
C25         C204   1.479       .  S
C26          C30   1.530   1_565  S
C26         C257   1.531       .  S
C26         C724   1.531   1_455  S
C26          H32   1.112   1_455  S
C27         C719   1.543       .  S
C27          H33   1.087       .  S
C27          C28   1.362       .  D
C28         C722   1.531       .  S
C28         C217   1.476       .  S
C29          H34   1.086       .  S
C29          C30   1.363       .  D
C30         C224   1.477       .  S
C35          C41   1.545   1_655  S
C35         C268   1.544   1_655  S
C35         C503   1.549       .  S
C35         C157   1.540       .  S
C36         C267   1.544   1_445  S
C36          H43   1.086       .  S
C36          C37   1.365       .  D
C37          C38   1.533   1_445  S
C37         C194   1.479       .  S
C38         C274   1.534   1_655  S
C38         C736   1.529       .  S
C38          H44   1.111   1_655  S
C39         C499   1.549       .  S
C39          H45   1.074       .  S
C39          C40   1.362       .  D
C40         C734   1.530       .  S
C40         C187   1.474       .  S
C41          H46   1.086       .  S
C41          C42   1.365       .  D
C42         C270   1.533   1_455  S
C42         C177   1.480       .  S
Fe47         O63   2.053       .  S
Fe47         O53   2.080       .  S
Fe47         O60   2.076       .  S
Fe47         O52   2.049       .  S
Fe47         O58   1.971       .  S
Fe48         O51   2.059       .  S
Fe48         O55   2.070       .  S
Fe48         O59   2.058       .  S
Fe48         O64   2.071       .  S
Fe48         O58   1.969       .  S
Fe49         O67   2.072       .  S
Fe49         O54   2.057       .  S
Fe49         O61   2.055       .  S
Fe49         O50   2.068       .  S
Fe49         O58   1.970       .  S
O50          C57   1.270       .  A
O51          C65   1.268       .  A
O52          C57   1.266       .  A
O53          C56   1.272       .  A
O54          C66   1.268       .  A
O55          C68   1.271       .  A
C56          O61   1.268       .  A
C56         C144   1.490       .  S
C57         C114   1.478       .  S
O59          C62   1.267       .  A
O60          C62   1.271       .  A
C62         C104   1.483       .  S
O63          C68   1.268       .  A
O64          C66   1.271       .  A
C65          O67   1.270       .  A
C65         C124   1.487       .  S
C66          C94   1.479       .  S
C68         C134   1.479       .  S
C69         C534   1.543       .  S
C69         C771   1.549       .  S
C69         C305   1.547   1_655  S
C69         C164   1.537       .  S
C70         C533   1.543       .  S
C70          H77   1.086       .  S
C70          C71   1.363       .  D
C71         C536   1.532       .  S
C71          C97   1.481       .  S
C72         C535   1.532       .  S
C72         C772   1.529       .  S
C72         C306   1.532   1_655  S
C72          H78   1.111       .  S
C73         C301   1.547   1_455  S
C73          H79   1.086       .  S
C73          C74   1.366       .  D
C74         C304   1.532   1_455  S
C74         C107   1.482       .  S
C75         C765   1.549       .  S
C75          H80   1.078       .  S
C75          C76   1.361       .  D
C76         C768   1.529       .  S
C76         C117   1.474       .  S
C81         C778   1.548   1_455  S
C81         C551   1.546   1_455  S
C81         C317   1.550       .  S
C81         C154   1.541       .  S
C82         C777   1.548       .  S
C82          H89   1.086       .  S
C82          C83   1.364       .  D
C83         C780   1.530       .  S
C83         C147   1.478       .  S
C84         C779   1.530   1_455  S
C84         C552   1.530   1_455  S
C84         C318   1.529       .  S
C84          H90   1.112       .  S
C85         C313   1.550       .  S
C85          H91   1.073       .  S
C85          C86   1.362       .  D
C86         C316   1.530       .  S
C86         C137   1.477       .  S
C87         C545   1.546       .  S
C87          H92   1.086       .  S
C87          C88   1.366       .  D
C88         C548   1.530       .  S
C88         C127   1.480       .  S
C93          C94   1.407       .  A
C93          C98   1.402       .  A
C93         F100   1.358       .  S
C94          C95   1.409       .  A
C95          C96   1.393       .  A
C95         F102   1.358       .  S
C96          C97   1.404       .  A
C96         F565   1.358       .  S
C97          C98   1.407       .  A
C98          F99   1.357       .  S
F101        C560   1.358   1_455  S
C103        C104   1.410       .  A
C103        C108   1.396       .  A
C103        F110   1.359       .  S
C104        C105   1.408       .  A
C105        C106   1.403       .  A
C105        F112   1.357       .  S
C106        C107   1.406       .  A
C106        F111   1.357       .  S
C107        C108   1.404       .  A
C108        F109   1.358       .  S
C113        C114   1.411       .  A
C113        C118   1.392       .  A
C113        F120   1.358       .  S
C114        C115   1.408       .  A
C115        C116   1.400       .  A
C115        F122   1.358       .  S
C116        C117   1.406       .  A
C116        F585   1.358       .  S
C117        C118   1.400       .  A
C118        F351   1.358   1_545  S
F119        C350   1.358       .  S
F121        C580   1.358       .  S
C123        C124   1.412       .  A
C123        C128   1.395       .  A
C123        F130   1.358       .  S
C124        C125   1.411       .  A
C125        C126   1.403       .  A
C125        F132   1.358       .  S
C126        C127   1.405       .  A
C126        F131   1.358       .  S
C127        C128   1.402       .  A
C128        F129   1.358       .  S
C133        C134   1.411       .  A
C133        C138   1.393       .  A
C133        F140   1.359       .  S
C134        C135   1.407       .  A
C135        C136   1.400       .  A
C135        F142   1.358       .  S
C136        C137   1.406       .  A
C136        F141   1.358       .  S
C137        C138   1.402       .  A
C138        F371   1.358   1_545  S
F139        C370   1.358       .  S
C143        C144   1.414       .  A
C143        C148   1.394       .  A
C143        F150   1.358       .  S
C144        C145   1.412       .  A
C145        C146   1.405       .  A
C145        F152   1.358       .  S
C146        C147   1.405       .  A
C146        F383   1.358   1_545  S
C147        C148   1.399       .  A
C148        F613   1.358       .  S
F149        C612   1.358   1_455  S
F151        C378   1.358       .  S
C153        C158   1.398       .  A
C153        C618   1.411       .  A
C153        F160   1.359       .  S
C154        C617   1.411   1_455  A
C154        C387   1.417       .  A
C155        C156   1.397       .  A
C155        C386   1.416       .  A
C155        F162   1.351       .  S
C156        C389   1.411   1_445  A
C156        F161   1.359       .  S
C157        C388   1.410   1_655  A
C157        C622   1.416       .  A
C158        C621   1.416       .  A
C158        F159   1.351       .  S
C163        C164   1.412   1_455  A
C163        C168   1.398   1_556  A
C163        F170   1.359       .  S
C164        C861   1.415       .  A
C165        C166   1.395   1_556  A
C165        C860   1.415       .  A
C165        F172   1.351       .  S
C166        C863   1.411   1_545  A
C166        F171   1.359       .  S
C167        C255   1.537       .  S
C167        C168   1.415       .  A
C167        C862   1.411   1_455  A
C168        F169   1.351       .  S
C173        C174   1.408       .  A
C173        C178   1.398       .  A
C173        F180   1.358       .  S
C174        C175   1.408       .  A
C175        C176   1.403       .  A
C175        F182   1.358       .  S
C176        C177   1.405       .  A
C176        F413   1.358       .  S
C177        C178   1.403       .  A
C178        F179   1.358   1_455  S
F181        C408   1.358       .  S
C183        C184   1.408       .  A
C183        C188   1.398       .  A
C183        F190   1.358       .  S
C184        C185   1.410       .  A
C185        C186   1.398       .  A
C185        F192   1.358       .  S
C186        C187   1.401       .  A
C186        F191   1.358       .  S
C187        C188   1.403       .  A
C188        F189   1.358       .  S
C193        C194   1.405       .  A
C193        C198   1.400       .  A
C193        F200   1.358       .  S
C194        C195   1.404       .  A
C195        C196   1.398       .  A
C195        F202   1.358       .  S
C196        C197   1.409       .  A
C196        F201   1.358       .  S
C197        C198   1.407       .  A
C198        F199   1.358       .  S
C203        C204   1.405       .  A
C203        C208   1.400       .  A
C203        F210   1.358       .  S
C204        C205   1.403       .  A
C205        C206   1.397       .  A
C205        F676   1.358   1_455  S
C206        C207   1.409       .  A
C206        F211   1.358       .  S
C207        C208   1.408       .  A
C208        F209   1.358       .  S
F212        C669   1.358       .  S
C213        C214   1.410       .  A
C213        C218   1.396       .  A
C213        F220   1.358       .  S
C214        C215   1.410       .  A
C215        C216   1.400       .  A
C215        F222   1.358       .  S
C216        C217   1.403       .  A
C216        F221   1.358       .  S
C217        C218   1.403       .  A
C218        F451   1.358       .  S
F219        C450   1.358   1_545  S
C223        C224   1.404       .  A
C223        C228   1.403       .  A
C223        F694   1.358       .  S
C224        C225   1.401       .  A
C225        C226   1.396       .  A
C225        F232   1.358       .  S
C226        C227   1.411       .  A
C226        F231   1.358       .  S
C227        C228   1.410       .  A
C228        F229   1.358       .  S
F230        C687   1.358       .  S
Fe233       O249   2.069       .  S
Fe233       O239   2.062       .  S
Fe233       O246   2.057       .  S
Fe233       O238   2.073       .  S
Fe233       O244   1.978       .  S
Fe234       O237   2.061       .  S
Fe234       O241   2.060       .  S
Fe234       O245   2.066       .  S
Fe234       O250   2.059       .  S
Fe234       O244   1.978       .  S
Fe235       O253   2.071       .  S
Fe235       O240   2.071       .  S
Fe235       O247   2.066       .  S
Fe235       O236   2.062       .  S
Fe235       O244   1.978       .  S
O236        C243   1.269       .  A
O237        C251   1.268       .  A
O238        C243   1.270       .  A
O239        C242   1.269       .  A
O240        C252   1.271       .  A
O241        C254   1.268       .  A
C242        O247   1.270       .  A
C242        C439   1.480       .  S
C243        C406   1.480       .  S
O245        C248   1.269       .  A
O246        C248   1.267       .  A
C248        C416   1.477       .  S
O249        C254   1.270       .  A
O250        C252   1.268       .  A
C251        O253   1.269       .  A
C251        C459   1.485       .  S
C252        C429   1.479       .  S
C254        C446   1.483       .  S
C255        C261   1.545       .  S
C255        C491   1.543   1_455  S
C256        H263   1.076       .  S
C256        C257   1.365       .  D
C257        C436   1.478       .  S
C258        C262   1.530       .  S
C258        C492   1.531   1_455  S
C258        H264   1.111   1_455  S
C259        C487   1.544       .  S
C259        H265   1.086       .  S
C259        C260   1.363       .  D
C260        C490   1.531       .  S
C260        C449   1.476       .  S
C261        H266   1.086       .  S
C261        C262   1.363       .  D
C262        C456   1.477       .  S
C267        C273   1.546   1_655  S
C267        C735   1.549       .  S
C267        C389   1.541       .  S
C268        H275   1.086       .  S
C268        C269   1.365       .  D
C269        C270   1.533   1_455  S
C269        C426   1.479       .  S
C270        C504   1.530       .  S
C270        H276   1.112   1_655  S
C271        C731   1.549       .  S
C271        H277   1.076       .  S
C271        C272   1.361       .  D
C272        C502   1.529       .  S
C272        C419   1.473       .  S
C273        H278   1.086       .  S
C273        C274   1.365       .  D
C274        C409   1.481       .  S
Fe279       O295   2.052       .  S
Fe279       O285   2.081       .  S
Fe279       O292   2.077       .  S
Fe279       O284   2.049       .  S
Fe279       O290   1.970       .  S
Fe280       O283   2.060       .  S
Fe280       O287   2.069       .  S
Fe280       O291   2.058       .  S
Fe280       O296   2.070       .  S
Fe280       O290   1.968       .  S
Fe281       O299   2.071       .  S
Fe281       O286   2.058       .  S
Fe281       O293   2.056       .  S
Fe281       O282   2.068       .  S
Fe281       O290   1.969       .  S
O282        C289   1.270       .  A
O283        C297   1.268       .  A
O284        C289   1.266       .  A
O285        C288   1.272       .  A
O286        C298   1.268       .  A
O287        C300   1.271       .  A
C288        O293   1.268       .  A
C288        C376   1.490       .  S
C289        C346   1.477       .  S
O291        C294   1.267       .  A
O292        C294   1.271       .  A
C294        C336   1.484       .  S
O295        C300   1.268       .  A
O296        C298   1.271       .  A
C297        O299   1.270       .  A
C297        C356   1.487       .  S
C298        C326   1.479       .  S
C300        C366   1.478       .  S
C301        C766   1.542   1_545  S
C301        C539   1.549       .  S
C301        C396   1.537       .  S
C302        C765   1.542   1_565  S
C302        H309   1.086       .  S
C302        C303   1.363       .  D
C303        C768   1.532   1_565  S
C303        C329   1.481       .  S
C304        C767   1.532   1_545  S
C304        C540   1.529       .  S
C304        H310   1.111       .  S
C305        H311   1.086       .  S
C305        C306   1.366       .  D
C306        C339   1.482       .  S
C307        C533   1.549       .  S
C307        H312   1.076       .  S
C307        C308   1.361       .  D
C308        C536   1.529       .  S
C308        C349   1.474       .  S
C313        C546   1.548   1_455  S
C313        C783   1.545   1_445  S
C313        C386   1.540       .  S
C314        C545   1.548       .  S
C314        H321   1.086       .  S
C314        C315   1.364       .  D
C315        C548   1.530       .  S
C315        C379   1.478       .  S
C316        C547   1.530   1_455  S
C316        C784   1.530   1_445  S
C316        H322   1.112       .  S
C317        H323   1.070       .  S
C317        C318   1.362       .  D
C318        C369   1.476       .  S
C319        C777   1.545   1_565  S
C319        H324   1.086       .  S
C319        C320   1.365       .  D
C320        C780   1.530   1_565  S
C320        C359   1.480       .  S
C325        C326   1.407       .  A
C325        C330   1.402       .  A
C325        F332   1.358       .  S
C326        C327   1.408       .  A
C327        C328   1.393       .  A
C327        F334   1.359       .  S
C328        C329   1.404       .  A
C328        F797   1.358       .  S
C329        C330   1.407       .  A
C330        F331   1.357       .  S
F333        C792   1.358   1_455  S
C335        C336   1.411       .  A
C335        C340   1.396       .  A
C335        F342   1.359       .  S
C336        C337   1.408       .  A
C337        C338   1.403       .  A
C337        F344   1.357       .  S
C338        C339   1.406       .  A
C338        F343   1.357       .  S
C339        C340   1.404       .  A
C340        F341   1.358       .  S
C345        C346   1.410       .  A
C345        C350   1.392       .  A
C345        F352   1.358       .  S
C346        C347   1.407       .  A
C347        C348   1.400       .  A
C347        F354   1.358       .  S
C348        C349   1.406       .  A
C348        F817   1.358       .  S
C349        C350   1.400       .  A
F353        C812   1.358       .  S
C355        C356   1.412       .  A
C355        C360   1.395       .  A
C355        F362   1.358       .  S
C356        C357   1.411       .  A
C357        C358   1.403       .  A
C357        F364   1.357       .  S
C358        C359   1.405       .  A
C358        F363   1.358       .  S
C359        C360   1.402       .  A
C360        F361   1.358       .  S
C365        C366   1.411       .  A
C365        C370   1.393       .  A
C365        F372   1.359       .  S
C366        C367   1.407       .  A
C367        C368   1.400       .  A
C367        F374   1.358       .  S
C368        C369   1.406       .  A
C368        F373   1.358       .  S
C369        C370   1.401       .  A
C375        C376   1.413       .  A
C375        C380   1.394       .  A
C375        F382   1.358       .  S
C376        C377   1.412       .  A
C377        C378   1.405       .  A
C377        F384   1.358       .  S
C378        C379   1.405       .  A
C379        C380   1.400       .  A
C380        F845   1.358       .  S
F381        C844   1.358   1_455  S
C385        C850   1.410   1_565  A
C385        C390   1.398       .  A
C385        F392   1.359       .  S
C386        C849   1.410   1_445  A
C387        C388   1.397       .  A
C387        F394   1.350       .  S
C388        F393   1.359       .  S
C389        C854   1.417       .  A
C390        C853   1.417       .  A
C390        F391   1.350       .  S
C395        C396   1.412   1_465  A
C395        C400   1.398   1_556  A
C395        F402   1.359       .  S
C396        C629   1.415       .  A
C397        C628   1.415       .  A
C397        C398   1.395   1_556  A
C397        F404   1.351       .  S
C398        C631   1.411       .  A
C398        F403   1.359       .  S
C399        C630   1.411   1_465  A
C399        C400   1.415       .  A
C400        F401   1.351       .  S
C405        C406   1.408       .  A
C405        C410   1.398       .  A
C405        F412   1.358       .  S
C406        C407   1.408       .  A
C407        C408   1.403       .  A
C407        F414   1.358       .  S
C408        C409   1.406       .  A
C409        C410   1.403       .  A
C410        F411   1.357   1_455  S
C415        C416   1.407       .  A
C415        C420   1.398       .  A
C415        F422   1.358       .  S
C416        C417   1.410       .  A
C417        C418   1.398       .  A
C417        F424   1.358       .  S
C418        C419   1.401       .  A
C418        F423   1.358   1_565  S
C419        C420   1.403       .  A
C420        F421   1.358       .  S
C425        C426   1.405       .  A
C425        C430   1.400       .  A
C425        F432   1.358       .  S
C426        C427   1.404       .  A
C427        C428   1.398       .  A
C427        F434   1.358       .  S
C428        C429   1.409       .  A
C428        F433   1.358       .  S
C429        C430   1.407       .  A
C430        F431   1.358       .  S
C435        C436   1.405       .  A
C435        C440   1.400       .  A
C435        F442   1.358       .  S
C436        C437   1.403       .  A
C437        C438   1.397       .  A
C437        F908   1.358   1_455  S
C438        C439   1.409       .  A
C438        F443   1.358       .  S
C439        C440   1.408       .  A
C440        F441   1.358       .  S
F444        C901   1.358       .  S
C445        C446   1.410       .  A
C445        C450   1.396       .  A
C445        F452   1.358       .  S
C446        C447   1.410       .  A
C447        C448   1.400       .  A
C447        F454   1.358       .  S
C448        C449   1.403       .  A
C448        F453   1.358       .  S
C449        C450   1.402       .  A
C455        C456   1.404       .  A
C455        C460   1.403       .  A
C455        F926   1.358       .  S
C456        C457   1.401       .  A
C457        C458   1.395       .  A
C457        F464   1.358       .  S
C458        C459   1.411       .  A
C458        F463   1.358       .  S
C459        C460   1.410       .  A
C460        F461   1.358       .  S
F462        C919   1.358       .  S
Fe465       O481   2.068       .  S
Fe465       O471   2.063       .  S
Fe465       O478   2.058       .  S
Fe465       O470   2.072       .  S
Fe465       O476   1.979       .  S
Fe466       O469   2.062       .  S
Fe466       O473   2.060       .  S
Fe466       O477   2.066       .  S
Fe466       O482   2.059       .  S
Fe466       O476   1.978       .  S
Fe467       O485   2.071       .  S
Fe467       O472   2.071       .  S
Fe467       O479   2.066       .  S
Fe467       O468   2.062       .  S
Fe467       O476   1.978       .  S
O468        C475   1.269       .  A
O469        C483   1.268       .  A
O470        C475   1.270       .  A
O471        C474   1.269       .  A
O472        C484   1.271       .  A
O473        C486   1.268       .  A
C474        O479   1.270       .  A
C474        C671   1.480       .  S
C475        C638   1.480       .  S
O477        C480   1.269       .  A
O478        C480   1.268       .  A
C480        C648   1.478       .  S
O481        C486   1.270       .  A
O482        C484   1.268       .  A
C483        O485   1.269       .  A
C483        C691   1.485       .  S
C484        C661   1.479       .  S
C486        C678   1.482       .  S
C487        C720   1.551       .  S
C487        C493   1.544   1_565  S
C487        C863   1.537       .  S
C488        C719   1.551       .  S
C488        H495   1.077       .  S
C488        C489   1.365       .  D
C489        C722   1.531       .  S
C489        C668   1.479       .  S
C490        C721   1.531       .  S
C490        C494   1.530   1_565  S
C490        H496   1.112       .  S
C491        H497   1.087       .  S
C491        C492   1.362       .  D
C492        C681   1.476       .  S
C493        H498   1.086       .  S
C493        C494   1.363       .  D
C494        C688   1.477       .  S
C499        C732   1.544       .  S
C499        C505   1.545       .  S
C499        C621   1.540       .  S
C500        C731   1.544   1_545  S
C500        H507   1.086       .  S
C500        C501   1.365       .  D
C501        C502   1.533   1_545  S
C501        C658   1.479       .  S
C502        C738   1.534       .  S
C502        H508   1.111       .  S
C503        H509   1.074       .  S
C503        C504   1.362       .  D
C504        C651   1.474       .  S
C505        H510   1.086       .  S
C505        C506   1.365       .  D
C506        C734   1.533       .  S
C506        C641   1.480       .  S
Fe511       O527   2.053       .  S
Fe511       O517   2.080       .  S
Fe511       O524   2.076       .  S
Fe511       O516   2.049       .  S
Fe511       O522   1.971       .  S
Fe512       O515   2.059       .  S
Fe512       O519   2.070       .  S
Fe512       O523   2.058       .  S
Fe512       O528   2.071       .  S
Fe512       O522   1.969       .  S
Fe513       O531   2.072       .  S
Fe513       O518   2.057       .  S
Fe513       O525   2.055       .  S
Fe513       O514   2.068       .  S
Fe513       O522   1.970       .  S
O514        C521   1.270       .  A
O515        C529   1.268       .  A
O516        C521   1.266       .  A
O517        C520   1.272       .  A
O518        C530   1.268       .  A
O519        C532   1.271       .  A
C520        O525   1.268       .  A
C520        C608   1.490       .  S
C521        C578   1.478       .  S
O523        C526   1.267       .  A
O524        C526   1.271       .  A
C526        C568   1.483       .  S
O527        C532   1.268       .  A
O528        C530   1.271       .  A
C529        O531   1.270       .  A
C529        C588   1.487       .  S
C530        C558   1.479       .  S
C532        C598   1.479       .  S
C533        C769   1.547       .  S
C533        C628   1.537       .  S
C534        H541   1.086       .  S
C534        C535   1.363       .  D
C535        C561   1.481       .  S
C536        C770   1.532       .  S
C536        H542   1.111       .  S
C537        C765   1.547       .  S
C537        H543   1.086       .  S
C537        C538   1.366       .  D
C538        C768   1.532       .  S
C538        C571   1.482       .  S
C539        H544   1.078       .  S
C539        C540   1.361       .  D
C540        C581   1.474       .  S
C545        C781   1.550       .  S
C545        C618   1.541       .  S
C546        H553   1.086       .  S
C546        C547   1.364       .  D
C547        C611   1.478       .  S
C548        C782   1.529       .  S
C548        H554   1.112       .  S
C549        C777   1.550       .  S
C549        H555   1.073       .  S
C549        C550   1.362       .  D
C550        C780   1.530       .  S
C550        C601   1.477       .  S
C551        H556   1.086       .  S
C551        C552   1.366       .  D
C552        C591   1.480       .  S
C557        C558   1.407       .  A
C557        C562   1.402       .  A
C557        F564   1.358       .  S
C558        C559   1.409       .  A
C559        C560   1.393       .  A
C559        F566   1.358       .  S
C560        C561   1.404       .  A
C561        C562   1.407       .  A
C562        F563   1.357       .  S
C567        C568   1.410       .  A
C567        C572   1.396       .  A
C567        F574   1.359       .  S
C568        C569   1.408       .  A
C569        C570   1.403       .  A
C569        F576   1.357       .  S
C570        C571   1.406       .  A
C570        F575   1.357       .  S
C571        C572   1.404       .  A
C572        F573   1.358       .  S
C577        C578   1.411       .  A
C577        C582   1.392       .  A
C577        F584   1.358       .  S
C578        C579   1.408       .  A
C579        C580   1.400       .  A
C579        F586   1.358       .  S
C580        C581   1.406       .  A
C581        C582   1.400       .  A
C582        F815   1.358   1_545  S
F583        C814   1.358       .  S
C587        C588   1.412       .  A
C587        C592   1.395       .  A
C587        F594   1.358       .  S
C588        C589   1.411       .  A
C589        C590   1.403       .  A
C589        F596   1.358       .  S
C590        C591   1.405       .  A
C590        F595   1.358   1_655  S
C591        C592   1.402       .  A
C592        F593   1.358       .  S
C597        C598   1.411       .  A
C597        C602   1.393       .  A
C597        F604   1.359       .  S
C598        C599   1.407       .  A
C599        C600   1.400       .  A
C599        F606   1.358       .  S
C600        C601   1.406       .  A
C600        F605   1.358       .  S
C601        C602   1.402       .  A
C602        F835   1.358   1_545  S
F603        C834   1.358       .  S
C607        C608   1.414       .  A
C607        C612   1.394       .  A
C607        F614   1.358       .  S
C608        C609   1.412       .  A
C609        C610   1.405       .  A
C609        F616   1.358       .  S
C610        C611   1.405       .  A
C610        F847   1.358   1_545  S
C611        C612   1.399       .  A
F615        C842   1.358       .  S
C617        C622   1.398       .  A
C617        F624   1.359       .  S
C618        C851   1.417       .  A
C619        C850   1.416       .  A
C619        C620   1.397       .  A
C619        F626   1.351       .  S
C620        C853   1.411   1_545  A
C620        F625   1.359       .  S
C621        C852   1.410       .  A
C622        F623   1.351       .  S
C627        C628   1.412       .  A
C627        C632   1.398   1_556  A
C627        F634   1.359       .  S
C629        C630   1.395   1_556  A
C629        F636   1.351       .  S
C630        F635   1.359       .  S
C631        C719   1.537       .  S
C631        C632   1.415       .  A
C632        F633   1.351       .  S
C637        C638   1.408       .  A
C637        C642   1.398       .  A
C637        F644   1.358       .  S
C638        C639   1.408       .  A
C639        C640   1.403       .  A
C639        F646   1.358       .  S
C640        C641   1.405       .  A
C640        F877   1.358       .  S
C641        C642   1.403       .  A
C642        F643   1.358       .  S
F645        C872   1.358       .  S
C647        C648   1.408       .  A
C647        C652   1.398       .  A
C647        F654   1.358       .  S
C648        C649   1.410       .  A
C649        C650   1.398       .  A
C649        F656   1.358       .  S
C650        C651   1.401       .  A
C650        F655   1.358       .  S
C651        C652   1.403       .  A
C652        F653   1.358       .  S
C657        C658   1.405       .  A
C657        C662   1.400       .  A
C657        F664   1.358       .  S
C658        C659   1.404       .  A
C659        C660   1.398       .  A
C659        F666   1.358       .  S
C660        C661   1.409       .  A
C660        F665   1.358       .  S
C661        C662   1.407       .  A
C662        F663   1.358       .  S
C667        C668   1.405       .  A
C667        C672   1.400       .  A
C667        F674   1.358       .  S
C668        C669   1.403       .  A
C669        C670   1.397       .  A
C670        C671   1.409       .  A
C670        F675   1.358       .  S
C671        C672   1.408       .  A
C672        F673   1.358       .  S
C677        C678   1.410       .  A
C677        C682   1.396       .  A
C677        F684   1.358       .  S
C678        C679   1.410       .  A
C679        C680   1.400       .  A
C679        F686   1.358       .  S
C680        C681   1.403       .  A
C680        F685   1.358       .  S
C681        C682   1.403       .  A
C682        F915   1.358       .  S
F683        C914   1.358   1_545  S
C687        C688   1.404       .  A
C687        C692   1.403       .  A
C688        C689   1.401       .  A
C689        C690   1.396       .  A
C689        F696   1.358       .  S
C690        C691   1.411       .  A
C690        F695   1.358       .  S
C691        C692   1.410       .  A
C692        F693   1.358       .  S
Fe697       O713   2.069       .  S
Fe697       O703   2.062       .  S
Fe697       O710   2.057       .  S
Fe697       O702   2.073       .  S
Fe697       O708   1.978       .  S
Fe698       O701   2.061       .  S
Fe698       O705   2.060       .  S
Fe698       O709   2.066       .  S
Fe698       O714   2.059       .  S
Fe698       O708   1.978       .  S
Fe699       O717   2.071       .  S
Fe699       O704   2.071       .  S
Fe699       O711   2.066       .  S
Fe699       O700   2.062       .  S
Fe699       O708   1.978       .  S
O700        C707   1.269       .  A
O701        C715   1.268       .  A
O702        C707   1.270       .  A
O703        C706   1.269       .  A
O704        C716   1.271       .  A
O705        C718   1.268       .  A
C706        O711   1.270       .  A
C706        C903   1.480       .  S
C707        C870   1.480       .  S
O709        C712   1.269       .  A
O710        C712   1.267       .  A
C712        C880   1.477       .  S
O713        C718   1.270       .  A
O714        C716   1.268       .  A
C715        O717   1.269       .  A
C715        C923   1.485       .  S
C716        C893   1.479       .  S
C718        C910   1.483       .  S
C719        C725   1.545       .  S
C720        H727   1.076       .  S
C720        C721   1.365       .  D
C721        C900   1.478       .  S
C722        C726   1.530       .  S
C722        H728   1.111       .  S
C723        H729   1.086       .  S
C723        C724   1.363       .  D
C724        C913   1.476       .  S
C725        H730   1.086       .  S
C725        C726   1.363       .  D
C726        C920   1.477       .  S
C731        C737   1.546       .  S
C731        C853   1.541       .  S
C732        H739   1.086       .  S
C732        C733   1.365       .  D
C733        C734   1.533       .  S
C733        C890   1.479       .  S
C734        H740   1.112       .  S
C735        H741   1.077       .  S
C735        C736   1.361       .  D
C736        C883   1.473       .  S
C737        H742   1.086       .  S
C737        C738   1.365       .  D
C738        C873   1.481       .  S
Fe743       O759   2.052       .  S
Fe743       O749   2.081       .  S
Fe743       O756   2.077       .  S
Fe743       O748   2.049       .  S
Fe743       O754   1.970       .  S
Fe744       O747   2.060       .  S
Fe744       O751   2.069       .  S
Fe744       O755   2.058       .  S
Fe744       O760   2.070       .  S
Fe744       O754   1.968       .  S
Fe745       O763   2.071       .  S
Fe745       O750   2.058       .  S
Fe745       O757   2.056       .  S
Fe745       O746   2.068       .  S
Fe745       O754   1.969       .  S
O746        C753   1.270       .  A
O747        C761   1.268       .  A
O748        C753   1.266       .  A
O749        C752   1.272       .  A
O750        C762   1.268       .  A
O751        C764   1.271       .  A
C752        O757   1.268       .  A
C752        C840   1.490       .  S
C753        C810   1.477       .  S
O755        C758   1.267       .  A
O756        C758   1.271       .  A
C758        C800   1.484       .  S
O759        C764   1.268       .  A
O760        C762   1.271       .  A
C761        O763   1.270       .  A
C761        C820   1.487       .  S
C762        C790   1.479       .  S
C764        C830   1.478       .  S
C765        C860   1.537       .  S
C766        H773   1.086       .  S
C766        C767   1.363       .  D
C767        C793   1.481       .  S
C768        H774   1.111       .  S
C769        H775   1.086       .  S
C769        C770   1.366       .  D
C770        C803   1.482       .  S
C771        H776   1.076       .  S
C771        C772   1.361       .  D
C772        C813   1.474       .  S
C777        C850   1.540       .  S
C778        H785   1.086       .  S
C778        C779   1.364       .  D
C779        C843   1.478       .  S
C780        H786   1.112       .  S
C781        H787   1.070       .  S
C781        C782   1.362       .  D
C782        C833   1.476       .  S
C783        H788   1.086       .  S
C783        C784   1.365       .  D
C784        C823   1.480       .  S
C789        C790   1.407       .  A
C789        C794   1.402       .  A
C789        F796   1.358       .  S
C790        C791   1.408       .  A
C791        C792   1.393       .  A
C791        F798   1.359       .  S
C792        C793   1.404       .  A
C793        C794   1.407       .  A
C794        F795   1.357       .  S
C799        C800   1.411       .  A
C799        C804   1.396       .  A
C799        F806   1.359       .  S
C800        C801   1.408       .  A
C801        C802   1.403       .  A
C801        F808   1.357       .  S
C802        C803   1.406       .  A
C802        F807   1.357       .  S
C803        C804   1.404       .  A
C804        F805   1.358       .  S
C809        C810   1.410       .  A
C809        C814   1.392       .  A
C809        F816   1.358       .  S
C810        C811   1.407       .  A
C811        C812   1.400       .  A
C811        F818   1.358       .  S
C812        C813   1.406       .  A
C813        C814   1.400       .  A
C819        C820   1.412       .  A
C819        C824   1.395       .  A
C819        F826   1.358       .  S
C820        C821   1.411       .  A
C821        C822   1.403       .  A
C821        F828   1.357       .  S
C822        C823   1.405       .  A
C822        F827   1.358   1_655  S
C823        C824   1.402       .  A
C824        F825   1.358       .  S
C829        C830   1.411       .  A
C829        C834   1.393       .  A
C829        F836   1.359       .  S
C830        C831   1.407       .  A
C831        C832   1.400       .  A
C831        F838   1.358       .  S
C832        C833   1.406       .  A
C832        F837   1.358       .  S
C833        C834   1.401       .  A
C839        C840   1.413       .  A
C839        C844   1.394       .  A
C839        F846   1.358       .  S
C840        C841   1.412       .  A
C841        C842   1.405       .  A
C841        F848   1.358       .  S
C842        C843   1.405       .  A
C843        C844   1.400       .  A
C849        C854   1.398       .  A
C849        F856   1.359       .  S
C851        C852   1.397       .  A
C851        F858   1.350       .  S
C852        F857   1.359       .  S
C854        F855   1.350       .  S
C859        C860   1.412   1_565  A
C859        C864   1.398   1_556  A
C859        F866   1.359       .  S
C861        C862   1.395   1_556  A
C861        F868   1.351       .  S
C862        F867   1.359       .  S
C863        C864   1.415       .  A
C864        F865   1.351       .  S
C869        C870   1.408       .  A
C869        C874   1.398       .  A
C869        F876   1.358       .  S
C870        C871   1.408       .  A
C871        C872   1.403       .  A
C871        F878   1.358       .  S
C872        C873   1.406       .  A
C873        C874   1.403       .  A
C874        F875   1.357       .  S
C879        C880   1.407       .  A
C879        C884   1.398       .  A
C879        F886   1.358       .  S
C880        C881   1.410       .  A
C881        C882   1.398       .  A
C881        F888   1.358       .  S
C882        C883   1.401       .  A
C882        F887   1.358   1_565  S
C883        C884   1.403       .  A
C884        F885   1.358       .  S
C889        C890   1.405       .  A
C889        C894   1.400       .  A
C889        F896   1.358       .  S
C890        C891   1.404       .  A
C891        C892   1.398       .  A
C891        F898   1.358       .  S
C892        C893   1.409       .  A
C892        F897   1.358       .  S
C893        C894   1.407       .  A
C894        F895   1.358       .  S
C899        C900   1.405       .  A
C899        C904   1.400       .  A
C899        F906   1.358       .  S
C900        C901   1.403       .  A
C901        C902   1.397       .  A
C902        C903   1.409       .  A
C902        F907   1.358       .  S
C903        C904   1.408       .  A
C904        F905   1.358       .  S
C909        C910   1.410       .  A
C909        C914   1.396       .  A
C909        F916   1.358       .  S
C910        C911   1.410       .  A
C911        C912   1.400       .  A
C911        F918   1.358       .  S
C912        C913   1.403       .  A
C912        F917   1.358       .  S
C913        C914   1.402       .  A
C919        C920   1.404       .  A
C919        C924   1.403       .  A
C920        C921   1.401       .  A
C921        C922   1.395       .  A
C921        F928   1.358       .  S
C922        C923   1.411       .  A
C922        F927   1.358       .  S
C923        C924   1.410       .  A
C924        F925   1.358       .  S
