geometry optimzed in LAMMPS
_audit_creation_date              2020-11-30 
_audit_creation_method            'lammps2cif' 
_symmetry_space_group_name_H-M    'P1' 
_symmetry_Int_Tables_number       1 
_symmetry_cell_setting            triclinic 
loop_ 
_symmetry_equiv_pos_as_xyz 
  x,y,z 
_cell_length_a                    25.563254605898507 
_cell_length_b                    25.492895586019685 
_cell_length_c                    25.38114956643954 
_cell_angle_alpha                 89.7562551709643 
_cell_angle_beta                  89.82820726098478 
_cell_angle_gamma                 89.96992589117981 
loop_ 
_atom_site_label 
_atom_site_type_symbol 
_atom_site_fract_x 
_atom_site_fract_y 
_atom_site_fract_z 
_atom_site_charge 
C1          C  0.72745713  0.73047684  0.00023921     0.04170
C2          C  0.74165611  0.67713824  0.99687589    -0.11970
C3          C  0.70341417  0.63797898  0.00041003     0.01680
C4          C  0.65079859  0.65190483  0.00517999    -0.10500
C5          C  0.63579098  0.70454578  0.00753104     0.04170
C6          C  0.67413736  0.74392032  0.00549644    -0.09920
H7          H  0.78238787  0.66609792  0.99265734     0.09760
H8          H  0.62124387  0.62144006  0.00733058     0.07290
H9          H  0.66256995  0.78468939  0.00850688     0.07140
C10         C  0.72624400  0.32235678  0.99961970     0.04170
C11         C  0.73908385  0.37577398  0.00598547    -0.11970
C12         C  0.70064305  0.41451958  0.00138360     0.01680
C13         C  0.64836258  0.40007008  0.99528240    -0.10500
C14         C  0.63427498  0.34719187  0.99201453     0.04170
C15         C  0.67333382  0.30853407  0.99180583    -0.09920
H16         H  0.77906658  0.38749182  0.01357838     0.09760
H17         H  0.61835220  0.43012863  0.99383075     0.07290
H18         H  0.66227500  0.26787038  0.98676217     0.07140
C19         C  0.31897058  0.32152373  0.98485996     0.04170
C20         C  0.30533025  0.37495761  0.98395145    -0.11970
C21         C  0.34435180  0.41338399  0.98393366     0.01680
C22         C  0.39695998  0.39843308  0.98444195    -0.10500
C23         C  0.41108849  0.34538311  0.98538021     0.04170
C24         C  0.37201581  0.30675530  0.98528492    -0.09920
H25         H  0.26452699  0.38652732  0.98425043     0.09760
H26         H  0.42713119  0.42831643  0.98531049     0.07290
H27         H  0.38271917  0.26564757  0.98680383     0.07140
C28         C  0.32039056  0.72893425  0.00027031     0.04170
C29         C  0.37325733  0.74167704  0.01004233    -0.11970
C30         C  0.41197758  0.70270598  0.00860914     0.01680
C31         C  0.39768561  0.65043848  0.00108822    -0.10500
C32         C  0.34544156  0.63680800  0.99301065     0.04170
C33         C  0.30724065  0.67609381  0.99036418    -0.09920
H34         H  0.38450854  0.78173424  0.01835103     0.09760
H35         H  0.42744719  0.62009544  0.00159232     0.07290
H36         H  0.26718842  0.66518628  0.98198537     0.07140
C37         C  0.73296622  0.02788694  0.70086176     0.04170
C38         C  0.68078958  0.02247832  0.71792196    -0.11970
C39         C  0.64000257  0.02218215  0.68133934     0.01680
C40         C  0.65114234  0.02617658  0.62758585    -0.10500
C41         C  0.70270111  0.03126096  0.60977280     0.04170
C42         C  0.74374622  0.03227372  0.64645665    -0.09920
H43         H  0.67191605  0.01885551  0.75955846     0.09760
H44         H  0.61934573  0.02581493  0.59938066     0.07290
H45         H  0.78367826  0.03693808  0.63281486     0.07140
C46         C  0.32613459  0.01482154  0.71162379     0.04170
C47         C  0.37918235  0.01472360  0.72641536    -0.11970
C48         C  0.41842187  0.01644876  0.68805998     0.01680
C49         C  0.40494256  0.01728138  0.63481618    -0.10500
C50         C  0.35252710  0.01505698  0.61910544     0.04170
C51         C  0.31295848  0.01450481  0.65771354    -0.09920
H52         H  0.38990656  0.01344671  0.76768023     0.09760
H53         H  0.43566808  0.01861487  0.60526791     0.07290
H54         H  0.27227012  0.01355016  0.64594378     0.07140
C55         C  0.31550089  0.02615810  0.30154460     0.04170
C56         C  0.30642939  0.02060411  0.35626511    -0.11970
C57         C  0.34788175  0.02457896  0.39221022     0.01680
C58         C  0.39880533  0.03176072  0.37320879    -0.10500
C59         C  0.40875298  0.03529236  0.31912304     0.04170
C60         C  0.36708281  0.03478920  0.28357751    -0.09920
H61         H  0.26751720  0.01205314  0.37092515     0.09760
H62         H  0.43124444  0.03253400  0.40064605     0.07290
H63         H  0.37520343  0.03893856  0.24185668     0.07140
C64         C  0.72207371  0.03163553  0.29143026     0.04170
C65         C  0.73503952  0.03379185  0.34523920    -0.11970
C66         C  0.69549709  0.03600545  0.38356985     0.01680
C67         C  0.64305656  0.03511126  0.36787615    -0.10500
C68         C  0.62982664  0.03292081  0.31449917     0.04170
C69         C  0.66926274  0.03146786  0.27624934    -0.09920
H70         H  0.77570557  0.03405109  0.35717702     0.09760
H71         H  0.61231297  0.03609246  0.39739838     0.07290
H72         H  0.65892351  0.03020019  0.23489439     0.07140
C73         C  0.02926751  0.31898529  0.70189751     0.04170
C74         C  0.03101767  0.37151172  0.71842199    -0.11970
C75         C  0.02962875  0.41214289  0.68117359     0.01680
C76         C  0.02705058  0.40016693  0.62744478    -0.10500
C77         C  0.02562266  0.34799220  0.61061847     0.04170
C78         C  0.02667391  0.30739311  0.64787537    -0.09920
H79         H  0.03255072  0.38068181  0.76004408     0.09760
H80         H  0.02593120  0.43163707  0.59858210     0.07290
H81         H  0.02481376  0.26697759  0.63493811     0.07140
C82         C  0.02657923  0.72647664  0.70779507     0.04170
C83         C  0.02170402  0.73861428  0.65355701    -0.11970
C84         C  0.02558429  0.69895035  0.61525830     0.01680
C85         C  0.03377190  0.64710443  0.63213245    -0.10500
C86         C  0.03574831  0.63425503  0.68574432     0.04170
C87         C  0.03383173  0.67397728  0.72340707    -0.09920
H88         H  0.01403530  0.77865860  0.64140695     0.09760
H89         H  0.03619280  0.61588778  0.60333417     0.07290
H90         H  0.03635640  0.66378168  0.76480521     0.07140
C91         C  0.02885244  0.32427271  0.29307501     0.04170
C92         C  0.02449149  0.31048969  0.34661726    -0.11970
C93         C  0.02633934  0.34947184  0.38531333     0.01680
C94         C  0.03280284  0.40194656  0.37046787    -0.10500
C95         C  0.03790691  0.41605254  0.31735568     0.04170
C96         C  0.03557942  0.37716293  0.27858831    -0.09920
H97         H  0.01975623  0.26975760  0.35803689     0.09760
H98         H  0.03448141  0.43199443  0.40054648     0.07290
H99         H  0.03966035  0.38786738  0.23741339     0.07140
C100        C  0.03619653  0.73106621  0.29681263     0.04170
C101        C  0.02887952  0.74172639  0.35068948    -0.11970
C102        C  0.03197632  0.70120647  0.38812165     0.01680
C103        C  0.04308553  0.65019590  0.37121974    -0.10500
C104        C  0.04857030  0.63867063  0.31768348     0.04170
C105        C  0.04540390  0.67923509  0.28039749    -0.09920
H106        H  0.02038899  0.78138809  0.36329247     0.09760
H107        H  0.04549737  0.61866332  0.39994110     0.07290
H108        H  0.04935106  0.67044963  0.23883737     0.07140
O109        O  0.87425294  0.94003705  0.99793499    -0.79090
O110        O  0.17199738  0.93913642  0.00610105    -0.80640
O111        O  0.02013123  0.87517528  0.91613826    -0.77660
O112        O  0.02691786  0.87992284  0.09180439    -0.76040
O113        O  0.02088132  0.94460935  0.15406106    -0.77830
O114        O  0.02105237  0.93852042  0.85244000    -0.78770
O115        O  0.10891485  0.87600983  0.00081106    -0.80090
O116        O  0.93733531  0.87645749  0.00242768    -0.80380
Eu117      Eu  0.02324336  0.91953291  0.00290231     2.39200
O118        O  0.07416153  0.97456955  0.05645099    -0.87890
O119        O  0.97212285  0.97235540  0.94734810    -0.91500
C120        C  0.88921555  0.89165111  0.00000663     1.03190
C121        C  0.15716478  0.89070306  0.00301416     1.03010
C122        C  0.01922847  0.89029576  0.86738668     1.02960
C123        C  0.02505509  0.89629326  0.13992370     1.00820
H124        H  0.10070221  0.94938167  0.92983152     0.30560
O125        O  0.07879108  0.97197491  0.95089780    -1.00280
H126        H  0.94644393  0.95217128  0.07644626     0.30600
O127        O  0.96863326  0.97371473  0.05437544    -1.02820
O128        O  0.17099868  0.11583453  0.99862927    -0.80050
O129        O  0.87446341  0.11330667  0.00002567    -0.79580
O130        O  0.11778990  0.01728147  0.85608303    -0.78020
O131        O  0.10347958  0.02090651  0.15391120    -0.81360
O132        O  0.93303246  0.03053189  0.14876420    -0.79220
O133        O  0.94271379  0.02503914  0.84870793    -0.77870
O134        O  0.02214508  0.17163047  0.90775284    -0.79390
O135        O  0.02376923  0.17866678  0.08256569    -0.81310
O136        O  0.02903638  0.10635624  0.84637868    -0.78050
O137        O  0.02340267  0.11654734  0.14812390    -0.80730
O138        O  0.17805375  0.02129881  0.92248585    -0.76460
O139        O  0.87728048  0.02674676  0.91052593    -0.76490
O140        O  0.87149648  0.02633346  0.08353703    -0.76140
O141        O  0.16973538  0.02308726  0.09362233    -0.79630
O142        O  0.10713289  0.17889571  0.99466710    -0.79060
O143        O  0.93815821  0.17582416  0.00208057    -0.77390
Eu144      Eu  0.13022944  0.02678432  0.00505167     2.39770
Eu145      Eu  0.91730047  0.02644546  0.99830449     2.39570
Eu146      Eu  0.02780677  0.02379104  0.89443542     2.38400
Eu147      Eu  0.02012566  0.02890828  0.10748307     2.39880
Eu148      Eu  0.02359204  0.13276296  0.99762836     2.39790
O149        O  0.96880425  0.08105146  0.05140381    -0.91800
O150        O  0.07920588  0.07857191  0.94772457    -0.90690
C151        C  0.15529257  0.16417720  0.99518483     1.03370
C152        C  0.88980093  0.16158295  0.00218923     1.02090
C153        C  0.16543600  0.01754823  0.87365563     1.01480
C154        C  0.15234400  0.01982408  0.14142540     1.03490
C155        C  0.88533911  0.02864987  0.13232039     1.02410
C156        C  0.89399943  0.02632776  0.86248475     1.01260
C157        C  0.02534748  0.15479900  0.85976328     1.01310
C158        C  0.02414368  0.16450648  0.13143522     1.03930
H159        H  0.95078070  0.09983845  0.92173369     0.31300
O160        O  0.97212705  0.07830739  0.94452289    -1.03960
H161        H  0.09719769  0.10369551  0.07694779     0.33350
O162        O  0.07565772  0.08159542  0.05509905    -1.06520
C163        C  0.02860884  0.85636441  0.18222754    -0.04290
C164        C  0.98483641  0.84499440  0.21419920    -0.01410
C165        C  0.98696629  0.80357481  0.25111379     0.03580
C166        C  0.03357546  0.77435763  0.25743717    -0.04290
C167        C  0.07829076  0.78776145  0.22735873    -0.01400
C168        C  0.07598521  0.82929226  0.19058785     0.03580
C169        C  0.93788557  0.87652925  0.20986800     0.38230
C170        C  0.12704475  0.75959476  0.23499135     0.38220
C171        C  0.12326481  0.84683811  0.16421227     0.36640
C172        C  0.94069856  0.79019507  0.28157996     0.36640
N173        N  0.16118861  0.86138695  0.14392652    -0.38180
N174        N  0.90382347  0.77952685  0.30591472    -0.38180
N175        N  0.16585870  0.73696160  0.24089892    -0.37620
N176        N  0.90057426  0.90204645  0.20729261    -0.37630
C177        C  0.04631474  0.47214912  0.30381559    -0.04290
C178        C  0.09248814  0.49745233  0.32054322    -0.01410
C179        C  0.09564617  0.55260763  0.31969499     0.03580
C180        C  0.05259763  0.58268823  0.30232466    -0.04290
C181        C  0.00876060  0.55726610  0.28034414    -0.01400
C182        C  0.00555401  0.50202969  0.28123568     0.03580
C183        C  0.13568076  0.46670393  0.34116717     0.38230
C184        C  0.96506999  0.58797547  0.26078021     0.38220
C185        C  0.95841737  0.47644702  0.26292652     0.36640
C186        C  0.14212383  0.57865898  0.33920129     0.36640
N187        N  0.92043771  0.45671072  0.24829165    -0.38180
N188        N  0.17912980  0.59951964  0.35481334    -0.38180
N189        N  0.93030101  0.61254922  0.24513969    -0.37620
N190        N  0.16992167  0.44203483  0.35780830    -0.37630
C191        C  0.02750106  0.28317587  0.25184047    -0.04520
C192        C  0.98501457  0.28056841  0.21654292    -0.01410
C193        C  0.98499385  0.24332838  0.17564965     0.03580
C194        C  0.02602380  0.20644549  0.17164884    -0.04290
C195        C  0.06897564  0.20967960  0.20635676    -0.01400
C196        C  0.06976221  0.24795832  0.24625521     0.03580
C197        C  0.94029578  0.31490251  0.22340192     0.38230
C198        C  0.11509423  0.17786388  0.19709980     0.38220
C199        C  0.11504176  0.25228905  0.28027112     0.36640
C200        C  0.94250949  0.24303734  0.13790691     0.36640
N201        N  0.15144096  0.25553995  0.30703853    -0.38180
N202        N  0.90842042  0.24331933  0.10804089    -0.38180
N203        N  0.15300733  0.15474954  0.18804478    -0.37620
N204        N  0.90407102  0.34156724  0.22887250    -0.37630
C205        C  0.01917217  0.70950026  0.55733052    -0.04290
C206        C  0.05259317  0.74474222  0.52998487    -0.01410
C207        C  0.05461949  0.74475080  0.47429165     0.03580
C208        C  0.02251124  0.71037763  0.44537649    -0.04290
C209        C  0.98444301  0.68029032  0.47227469    -0.01400
C210        C  0.98295159  0.67954892  0.52776929     0.03580
C211        C  0.08665878  0.78004280  0.55810896     0.38230
C212        C  0.94726745  0.64905145  0.44265371     0.38220
C213        C  0.94431259  0.64691383  0.55399091     0.36640
C214        C  0.09186585  0.77824786  0.44698276     0.36640
N215        N  0.91322671  0.62015058  0.57350531    -0.38180
N216        N  0.12135155  0.80520566  0.42524656    -0.38180
N217        N  0.91792232  0.62400026  0.41892993    -0.37620
N218        N  0.11420289  0.80991020  0.57795687    -0.37630
C219        C  0.02282270  0.76868119  0.74838533    -0.04290
C220        C  0.05481105  0.81352323  0.74428908    -0.01410
C221        C  0.04727933  0.85608481  0.77837518     0.03580
C222        C  0.01737682  0.84964530  0.82507316    -0.04290
C223        C  0.98634716  0.80391992  0.83060594    -0.01400
C224        C  0.98693649  0.76505648  0.79092917     0.03580
C225        C  0.09999633  0.81383567  0.70976439     0.38230
C226        C  0.95106385  0.79820720  0.87510136     0.38220
C227        C  0.95004245  0.72188774  0.79371674     0.36640
C228        C  0.06843396  0.90672684  0.76302463     0.36640
N229        N  0.92054154  0.68752277  0.79596652    -0.38180
N230        N  0.08405166  0.94726652  0.74959366    -0.38180
N231        N  0.92270223  0.79314719  0.91036612    -0.37620
N232        N  0.13799067  0.81423895  0.68493341    -0.37630
C233        C  0.02304393  0.33693033  0.55339133    -0.04290
C234        C  0.97617377  0.34626990  0.52562367    -0.01410
C235        C  0.97627248  0.34649412  0.47009191     0.03580
C236        C  0.02308926  0.33671313  0.44222872    -0.04290
C237        C  0.06886575  0.32302977  0.47000514    -0.01400
C238        C  0.06890086  0.32330793  0.52554698     0.03580
C239        C  0.92824680  0.35717091  0.55428887     0.38230
C240        C  0.11681667  0.31197263  0.44147156     0.38220
C241        C  0.11700725  0.31295567  0.55387187     0.36640
C242        C  0.92881734  0.35907095  0.44149278     0.36640
N243        N  0.15565754  0.30489333  0.57608701    -0.38180
N244        N  0.89104217  0.36919607  0.41857505    -0.38180
N245        N  0.15527841  0.30322247  0.41902419    -0.37620
N246        N  0.88994746  0.36563394  0.57714385    -0.37630
C247        C  0.02891610  0.46795685  0.69722109    -0.04290
C248        C  0.07569900  0.49356344  0.71160169    -0.01410
C249        C  0.07752602  0.54892662  0.71278701     0.03580
C250        C  0.03224378  0.57818543  0.70093302    -0.04290
C251        C  0.98392153  0.55225119  0.69506542    -0.01400
C252        C  0.98241783  0.49724815  0.69168777     0.03580
C253        C  0.12226584  0.46304769  0.72269487     0.38230
C254        C  0.93594457  0.58247689  0.69181266     0.38220
C255        C  0.93345677  0.47091831  0.68037334     0.36640
C256        C  0.12598877  0.57580122  0.72460235     0.36640
N257        N  0.89437701  0.45004247  0.67116163    -0.38180
N258        N  0.16456988  0.59729151  0.73450792    -0.38180
N259        N  0.89766494  0.60667254  0.69012618    -0.37620
N260        N  0.15922620  0.43850665  0.73199866    -0.37630
C261        C  0.02775229  0.27587793  0.74131198    -0.04290
C262        C  0.98390486  0.27027009  0.77486750    -0.01410
C263        C  0.98191959  0.22872296  0.81155500     0.03580
C264        C  0.02458680  0.19406127  0.81661966    -0.04290
C265        C  0.06589625  0.19652390  0.77963291    -0.01400
C266        C  0.06836606  0.23832067  0.74323559     0.03580
C267        C  0.94006410  0.30623771  0.77055975     0.38230
C268        C  0.10408941  0.15451842  0.77668255     0.38220
C269        C  0.11344750  0.24322945  0.70875996     0.36640
C270        C  0.93340439  0.21730748  0.83884182     0.36640
N271        N  0.14978325  0.24682727  0.68170912    -0.38180
N272        N  0.89395741  0.20722474  0.85885202    -0.38180
N273        N  0.13371797  0.12035688  0.77305971    -0.37620
N274        N  0.90519845  0.33502849  0.76721779    -0.37630
C275        C  0.76390383  0.03062734  0.25066951    -0.04290
C276        C  0.79892598  0.07317660  0.24585570    -0.01410
C277        C  0.83931556  0.07182807  0.20801860     0.03580
C278        C  0.84324702  0.02939340  0.17264257    -0.04290
C279        C  0.80686779  0.98780101  0.17605024    -0.01400
C280        C  0.76843012  0.98759307  0.21603607     0.03580
C281        C  0.79236075  0.11921076  0.27871214     0.38230
C282        C  0.80970572  0.94441618  0.13938368     0.38220
C283        C  0.73468716  0.94225854  0.22266469     0.36640
C284        C  0.87610880  0.11488010  0.20489460     0.36640
N285        N  0.70800010  0.90598161  0.22820971    -0.38180
N286        N  0.90555869  0.14922375  0.20322128    -0.38180
N287        N  0.81170480  0.90959721  0.11037306    -0.37620
N288        N  0.78684754  0.15597041  0.30475219    -0.37630
C289        C  0.46386496  0.03316259  0.30102640    -0.04290
C290        C  0.49176522  0.07965683  0.29019148    -0.01410
C291        C  0.54695874  0.07877475  0.28914700     0.03580
C292        C  0.57385828  0.03161875  0.29999464    -0.04290
C293        C  0.54583654  0.98422799  0.30462986    -0.01400
C294        C  0.49082406  0.98490725  0.30382725     0.03580
C295        C  0.46374955  0.12845854  0.28228656     0.38230
C296        C  0.57360249  0.93527596  0.31313621     0.38220
C297        C  0.46178618  0.93615180  0.30709663     0.36640
C298        C  0.57619322  0.12662589  0.27970133     0.36640
N299        N  0.43872343  0.89713236  0.30873989    -0.38180
N300        N  0.59980158  0.16459912  0.27185753    -0.38180
N301        N  0.59580662  0.89631222  0.32019059    -0.37620
N302        N  0.44134187  0.16736419  0.27560694    -0.37630
C303        C  0.19136213  0.01554491  0.18521176    -0.04290
C304        C  0.23882215  0.98765074  0.17819083    -0.01410
C305        C  0.27733245  0.98779327  0.21800802     0.03580
C306        C  0.27169376  0.02055352  0.26270626    -0.04290
C307        C  0.22373295  0.04733267  0.27004330    -0.01400
C308        C  0.18230947  0.04050132  0.23423065     0.03580
C309        C  0.24749405  0.95645354  0.13125569     0.38230
C310        C  0.21723969  0.08487257  0.31229928     0.38220
C311        C  0.13048889  0.05863498  0.24913507     0.36640
C312        C  0.32196315  0.95282742  0.21334919     0.36640
N313        N  0.08919082  0.07247760  0.26176533    -0.38180
N314        N  0.35736230  0.92476723  0.20949961    -0.38180
N315        N  0.21087845  0.11563281  0.34506124    -0.37620
N316        N  0.25509814  0.93141299  0.09408526    -0.37630
C317        C  0.34095054  0.01249717  0.56163327    -0.04290
C318        C  0.31522554  0.05435259  0.53583973    -0.01410
C319        C  0.31523985  0.05734280  0.48017554     0.03580
C320        C  0.33973984  0.01774733  0.45001114    -0.04290
C321        C  0.36182841  0.97392203  0.47593624    -0.01400
C322        C  0.36242879  0.97130310  0.53134711     0.03580
C323        C  0.29139085  0.09593897  0.56650180     0.38230
C324        C  0.38589356  0.93214677  0.44572952     0.38220
C325        C  0.38669501  0.92665000  0.55724261     0.36640
C326        C  0.29396756  0.10345364  0.45445338     0.36640
N327        N  0.40639166  0.89108535  0.57756481    -0.38180
N328        N  0.27745717  0.14102026  0.43490830    -0.38180
N329        N  0.40551980  0.89854561  0.42241250    -0.37620
N330        N  0.27207152  0.12893146  0.59098185    -0.37630
C331        C  0.20919323  0.01387840  0.83501142    -0.04290
C332        C  0.25001402  0.05108906  0.83518020    -0.01410
C333        C  0.28502921  0.05410247  0.79247446     0.03580
C334        C  0.28485809  0.01485312  0.75325753    -0.04290
C335        C  0.24918004  0.97261226  0.75789033    -0.01400
C336        C  0.21218008  0.97174301  0.79937499     0.03580
C337        C  0.26152771  0.08036275  0.88252746     0.38230
C338        C  0.25211763  0.92882228  0.72170678     0.38220
C339        C  0.18503462  0.92344901  0.81208442     0.36640
C340        C  0.32067139  0.09826742  0.78899507     0.36640
N341        N  0.16556572  0.88414590  0.82393514    -0.38180
N342        N  0.34858390  0.13391372  0.78660687    -0.38180
N343        N  0.25443524  0.89393892  0.69275869    -0.37620
N344        N  0.27295140  0.10137872  0.92113850    -0.37630
C345        C  0.71191270  0.03641180  0.55212081    -0.04290
C346        C  0.72991425  0.99305709  0.52269965    -0.01410
C347        C  0.72844554  0.99442875  0.46710117     0.03580
C348        C  0.70777374  0.03865465  0.44073337    -0.04290
C349        C  0.69268069  0.08316979  0.47006113    -0.01400
C350        C  0.69488496  0.08210414  0.52553809     0.03580
C351        C  0.74573155  0.94530280  0.54940856     0.38230
C352        C  0.67326530  0.12951773  0.44306324     0.38220
C353        C  0.67727039  0.12718570  0.55550017     0.36640
C354        C  0.74503976  0.94898466  0.43714505     0.36640
N355        N  0.66300942  0.16296722  0.57951068    -0.38180
N356        N  0.75839410  0.91283466  0.41316747    -0.38180
N357        N  0.65760675  0.16630777  0.42137491    -0.37620
N358        N  0.75783988  0.90658595  0.56994646    -0.37630
C359        C  0.58460325  0.01892854  0.69802176    -0.04290
C360        C  0.55820905  0.97044328  0.69569010    -0.01410
C361        C  0.50318698  0.96904689  0.69829335     0.03580
C362        C  0.47456325  0.01620488  0.70207691    -0.04290
C363        C  0.50111256  0.06408269  0.70942929    -0.01400
C364        C  0.55619529  0.06542948  0.70752330     0.03580
C365        C  0.58756610  0.92249743  0.68723319     0.38230
C366        C  0.47175199  0.11237276  0.71549108     0.38220
C367        C  0.58342453  0.11515087  0.71143973     0.36640
C368        C  0.47577017  0.91941696  0.69463179     0.36640
N369        N  0.60487862  0.15498118  0.71439276    -0.38180
N370        N  0.45382357  0.87982360  0.69209572    -0.38180
N371        N  0.44870098  0.15114529  0.72026401    -0.37620
N372        N  0.61107904  0.88433981  0.68024498    -0.37630
C373        C  0.77595290  0.02916929  0.74052824    -0.04290
C374        C  0.77572955  0.06734894  0.78081611    -0.01410
C375        C  0.81371362  0.06592913  0.82101029     0.03580
C376        C  0.85401253  0.02788197  0.82000737    -0.04290
C377        C  0.85517387  0.99073316  0.77884019    -0.01400
C378        C  0.81588366  0.99080614  0.73989296     0.03580
C379        C  0.73692285  0.10892249  0.78062067     0.38230
C380        C  0.89516273  0.95040468  0.77776912     0.38220
C381        C  0.81544754  0.94956817  0.70074833     0.36640
C382        C  0.81098817  0.10392360  0.86335755     0.36640
N383        N  0.81579419  0.91610209  0.67012792    -0.38180
N384        N  0.80785704  0.13399833  0.89723969    -0.38180
N385        N  0.92665036  0.91786940  0.77610598    -0.37620
N386        N  0.70626134  0.14232314  0.78084107    -0.37630
C387        C  0.27866671  0.77051032  0.00094636    -0.04290
C388        C  0.23142069  0.76242721  0.02918119    -0.01410
C389        C  0.19052387  0.79959192  0.02648480     0.03580
C390        C  0.19855996  0.84888052  0.00147520    -0.04290
C391        C  0.24658267  0.85766218  0.97469288    -0.01400
C392        C  0.28522156  0.81806462  0.97262562     0.03580
C393        C  0.22515295  0.71673589  0.06302124     0.38230
C394        C  0.25637772  0.90670256  0.94718690     0.38220
C395        C  0.33101339  0.82630987  0.93965936     0.36640
C396        C  0.14010069  0.78590040  0.04913421     0.36640
N397        N  0.36724412  0.83388538  0.91328389    -0.38180
N398        N  0.09981423  0.77401753  0.06636304    -0.38180
N399        N  0.26578271  0.94551393  0.92538724    -0.37620
N400        N  0.22004610  0.68043672  0.09009698    -0.37630
C401        C  0.33140557  0.46993466  0.98667670    -0.04290
C402        C  0.32557854  0.49957647  0.93998152    -0.01410
C403        C  0.32580470  0.55490405  0.94209265     0.03580
C404        C  0.33170544  0.58039084  0.99093256    -0.04290
C405        C  0.33235685  0.55064815  0.03796672    -0.01400
C406        C  0.33240911  0.49548749  0.03583658     0.03580
C407        C  0.32194114  0.47304418  0.88971419     0.38230
C408        C  0.33523492  0.57699209  0.08845441     0.38220
C409        C  0.33603281  0.46497958  0.08407008     0.36640
C410        C  0.32276873  0.58557540  0.89398205     0.36640
N411        N  0.33893760  0.44074354  0.12260291    -0.38180
N412        N  0.32023987  0.61013952  0.85562575    -0.38180
N413        N  0.33746493  0.59814198  0.12863791    -0.37620
N414        N  0.31892462  0.45167395  0.84970277    -0.37630
C415        C  0.19547137  0.20628053  0.99161309    -0.04290
C416        C  0.20422938  0.24019426  0.03443850    -0.01410
C417        C  0.24600410  0.27625929  0.03310918     0.03580
C418        C  0.27712698  0.28123679  0.98734892    -0.04290
C419        C  0.26496859  0.25118962  0.94250692    -0.01400
C420        C  0.22321130  0.21502789  0.94429414     0.03580
C421        C  0.16648540  0.24308097  0.07674381     0.38230
C422        C  0.29414879  0.25889082  0.89397767     0.38220
C423        C  0.20461806  0.19196436  0.89598617     0.36640
C424        C  0.25677765  0.30845948  0.07883812     0.36640
N425        N  0.18972482  0.17461778  0.85684357    -0.38180
N426        N  0.26538140  0.33404404  0.11535184    -0.38180
N427        N  0.31743839  0.26501676  0.85527262    -0.37620
N428        N  0.13526615  0.24864038  0.10921978    -0.37630
C429        C  0.46743090  0.33203759  0.98959633    -0.04290
C430        C  0.49656002  0.31906997  0.94413319    -0.01410
C431        C  0.55181691  0.31988540  0.94557872     0.03580
C432        C  0.57780246  0.33361818  0.99251578    -0.04290
C433        C  0.54859168  0.34159546  0.03911957    -0.01400
C434        C  0.49355598  0.34085450  0.03764616     0.03580
C435        C  0.46962815  0.30791987  0.89526641     0.38230
C436        C  0.57532515  0.35287055  0.08816430     0.38220
C437        C  0.46365560  0.35152697  0.08509895     0.36640
C438        C  0.58185388  0.30969160  0.89818790     0.36640
N439        N  0.43980972  0.36003475  0.12293820    -0.38180
N440        N  0.60592745  0.30149302  0.86042142    -0.38180
N441        N  0.59680403  0.36195661  0.12714544    -0.37620
N442        N  0.44801855  0.29894702  0.85633501    -0.37630
C443        C  0.76835268  0.28131220  0.00132268    -0.04290
C444        C  0.76261621  0.23559123  0.03277133    -0.01410
C445        C  0.80144662  0.19607375  0.03220010     0.03580
C446        C  0.84899265  0.20386129  0.00429860    -0.04290
C447        C  0.85710609  0.25265244  0.97841378    -0.01400
C448        C  0.81562478  0.28864608  0.97298877     0.03580
C449        C  0.71779432  0.22977331  0.06759884     0.38230
C450        C  0.90841023  0.26770916  0.95889081     0.38220
C451        C  0.82151287  0.33221878  0.93636296     0.36640
C452        C  0.79319716  0.14883366  0.06321835     0.36640
N453        N  0.82641711  0.36676990  0.90703282    -0.38180
N454        N  0.78577979  0.11138282  0.08803835    -0.38180
N455        N  0.94939069  0.28068604  0.94434161    -0.37620
N456        N  0.68216281  0.22507851  0.09546717    -0.37630
C457        C  0.57909227  0.71672547  0.01161293    -0.04290
C458        C  0.55106274  0.73177434  0.96615811    -0.01410
C459        C  0.49589288  0.73119070  0.96651880     0.03580
C460        C  0.46846785  0.71549626  0.01229818    -0.04290
C461        C  0.49640146  0.70328304  0.05862214    -0.01400
C462        C  0.55158091  0.70404612  0.05833554     0.03580
C463        C  0.57875443  0.74307319  0.91748890     0.38230
C464        C  0.46832803  0.68693865  0.10564398     0.38220
C465        C  0.58020592  0.68888835  0.10527193     0.36640
C466        C  0.46749688  0.74202828  0.91827082     0.36640
N467        N  0.60310713  0.67657977  0.14259560    -0.38180
N468        N  0.44518414  0.75012225  0.87947715    -0.38180
N469        N  0.44592046  0.67365889  0.14306844    -0.37620
N470        N  0.60016733  0.75158838  0.87815856    -0.37630
C471        C  0.71421817  0.47097900  0.00185890    -0.04290
C472        C  0.71502491  0.49863135  0.04980902    -0.01410
C473        C  0.71658968  0.55389138  0.04940900     0.03580
C474        C  0.71697529  0.58149004  0.00105683    -0.04290
C475        C  0.72090351  0.55370395  0.95329692    -0.01400
C476        C  0.71959596  0.49841536  0.95370366     0.03580
C477        C  0.71141529  0.47026501  0.09932773     0.38230
C478        C  0.72328027  0.58209451  0.90371442     0.38220
C479        C  0.72115722  0.46969016  0.90450464     0.36640
C480        C  0.71529735  0.58259101  0.09861758     0.36640
N481        N  0.72238632  0.44660748  0.86535585    -0.38180
N482        N  0.71437238  0.60560919  0.13780730    -0.38180
N483        N  0.72521913  0.60481719  0.86418666    -0.37620
N484        N  0.70851622  0.44753367  0.13879034    -0.37630
C485        C  0.84797795  0.85034584  0.99984316    -0.04290
C486        C  0.80703499  0.85215480  0.96252360    -0.01410
C487        C  0.76809000  0.81289232  0.96224335     0.03580
C488        C  0.76878042  0.77199812  0.00010431    -0.04290
C489        C  0.80948408  0.77053966  0.03778109    -0.01400
C490        C  0.84935512  0.80880440  0.03697220     0.03580
C491        C  0.80590797  0.89325032  0.92276778     0.38230
C492        C  0.80971432  0.73048386  0.07862995     0.38220
C493        C  0.89116742  0.80578323  0.07540925     0.36640
C494        C  0.72839451  0.81395873  0.92157766     0.36640
N495        N  0.92462352  0.80276026  0.10586483    -0.38180
N496        N  0.69718623  0.81561335  0.88870811    -0.38180
N497        N  0.81002545  0.69854309  0.11116917    -0.37620
N498        N  0.80460942  0.92586661  0.89095349    -0.37630
loop_ 
_geom_bond_atom_site_label_1 
_geom_bond_atom_site_label_2 
_geom_bond_distance 
_geom_bond_site_symmetry_2 
_ccdc_geom_bond_type 
C1            C2   1.410   1_554  A
C1            C6   1.411       .  A
C1          C488   1.496       .  S
C2            C3   1.400   1_556  A
C2            H7   1.084       .  S
C3            C4   1.396       .  A
C3          C474   1.481       .  S
C4            C5   1.397       .  A
C4            H8   1.085       .  S
C5            C6   1.404       .  A
C5          C457   1.486       .  S
C6            H9   1.083       .  S
C10          C11   1.411   1_556  A
C10          C15   1.413       .  A
C10         C443   1.501   1_556  S
C11          C12   1.398       .  A
C11          H16   1.083       .  S
C12          C13   1.396   1_554  A
C12         C471   1.481       .  S
C13          C14   1.398       .  A
C13          H17   1.085       .  S
C14          C15   1.403       .  A
C14         C432   1.485       .  S
C15          H18   1.083       .  S
C19          C20   1.406       .  A
C19          C24   1.407       .  A
C19         C418   1.484       .  S
C20          C21   1.398       .  A
C20          H25   1.084       .  S
C21          C22   1.398       .  A
C21         C401   1.481       .  S
C22          C23   1.400       .  A
C22          H26   1.085       .  S
C23          C24   1.403       .  A
C23         C429   1.484       .  S
C24          H27   1.084       .  S
C28          C29   1.413       .  A
C28          C33   1.412   1_554  A
C28         C387   1.503       .  S
C29          C30   1.403       .  A
C29          H34   1.083       .  S
C30          C31   1.396       .  A
C30         C460   1.484       .  S
C31          C32   1.396   1_554  A
C31          H35   1.085       .  S
C32          C33   1.400       .  A
C32         C404   1.482       .  S
C33          H36   1.083       .  S
C37          C38   1.408       .  A
C37          C42   1.411       .  A
C37         C373   1.493       .  S
C38          C39   1.398       .  A
C38          H43   1.084       .  S
C39          C40   1.396       .  A
C39         C359   1.479       .  S
C40          C41   1.398       .  A
C40          H44   1.085       .  S
C41          C42   1.405       .  A
C41         C345   1.487       .  S
C42          H45   1.083       .  S
C46          C47   1.408       .  A
C46          C51   1.410       .  A
C46         C334   1.491       .  S
C47          C48   1.396       .  A
C47          H52   1.084       .  S
C48          C49   1.396       .  A
C48         C362   1.480       .  S
C49          C50   1.400       .  A
C49          H53   1.085       .  S
C50          C51   1.406       .  A
C50         C317   1.491       .  S
C51          H54   1.083       .  S
C55          C56   1.414       .  A
C55          C60   1.411       .  A
C55         C306   1.501       .  S
C56          C57   1.404       .  A
C56          H61   1.083       .  S
C57          C58   1.399       .  A
C57         C320   1.491       .  S
C58          C59   1.398       .  A
C58          H62   1.085       .  S
C59          C60   1.398       .  A
C59         C289   1.482       .  S
C60          H63   1.083       .  S
C64          C65   1.408       .  A
C64          C69   1.405       .  A
C64         C275   1.486       .  S
C65          C66   1.402       .  A
C65          H70   1.084       .  S
C66          C67   1.400       .  A
C66         C348   1.487       .  S
C67          C68   1.399       .  A
C67          H71   1.085       .  S
C68          C69   1.398       .  A
C68         C292   1.479       .  S
C69          H72   1.084       .  S
C73          C74   1.406       .  A
C73          C78   1.406       .  A
C73         C261   1.483       .  S
C74          C75   1.400       .  A
C74          H79   1.084       .  S
C75          C76   1.400       .  A
C75         C247   1.482       .  S
C76          C77   1.399       .  A
C76          H80   1.085       .  S
C77          C78   1.399       .  A
C77         C233   1.482       .  S
C78          H81   1.084       .  S
C82          C83   1.416       .  A
C82          C87   1.407       .  A
C82         C219   1.496       .  S
C83          C84   1.409       .  A
C83          H88   1.083       .  S
C84          C85   1.403       .  A
C84         C205   1.503       .  S
C85          C86   1.399       .  A
C85          H89   1.084       .  S
C86          C87   1.396       .  A
C86         C250   1.482       .  S
C87          H90   1.083       .  S
C91          C92   1.406       .  A
C91          C96   1.407       .  A
C91         C191   1.484       .  S
C92          C93   1.401       .  A
C92          H97   1.084       .  S
C93          C94   1.398       .  A
C93         C236   1.481       .  S
C94          C95   1.399       .  A
C94          H98   1.085       .  S
C95          C96   1.401       .  A
C95         C177   1.485       .  S
C96          H99   1.084       .  S
C100        C101   1.407       .  A
C100        C105   1.407       .  A
C100        C166   1.487       .  S
C101        C102   1.403       .  A
C101        H106   1.083       .  S
C102        C103   1.400       .  A
C102        C208   1.492       .  S
C103        C104   1.398       .  A
C103        H107   1.085       .  S
C104        C105   1.401       .  A
C104        C180   1.484       .  S
C105        H108   1.084       .  S
O109        C120   1.292   1_556  A
O109       Eu145   2.463   1_565  S
O110        C121   1.295       .  A
O110       Eu144   2.476   1_565  S
O111        C122   1.295       .  A
O111       Eu117   2.481   1_556  S
O112        C123   1.293       .  A
O112       Eu117   2.470       .  S
O113        C123   1.289       .  A
O113       Eu147   2.448   1_565  S
O114        C122   1.286       .  A
O114       Eu146   2.432   1_565  S
O115        C121   1.291       .  A
O115       Eu117   2.455       .  S
O116        C120   1.291       .  A
O116       Eu117   2.456   1_655  S
Eu117       O127   2.359   1_455  S
Eu117       O119   2.346   1_454  S
Eu117       O118   2.353       .  S
Eu117       O125   2.350   1_554  S
O118       Eu147   2.347   1_565  S
O118       Eu144   2.346   1_565  S
O119       Eu145   2.354   1_565  S
O119       Eu146   2.350   1_665  S
C120        C485   1.490   1_554  S
C121        C390   1.502       .  S
C122        C222   1.496       .  S
C123        C163   1.479       .  S
H124        O125   0.965       .  S
O125       Eu146   2.343   1_565  S
O125       Eu144   2.366   1_566  S
H126        O127   0.966       .  S
O127       Eu145   2.355   1_564  S
O127       Eu147   2.358   1_665  S
O128        C151   1.299       .  A
O128       Eu144   2.503   1_556  S
O129        C152   1.293       .  A
O129       Eu145   2.470   1_554  S
O130        C153   1.298       .  A
O130       Eu146   2.501       .  S
O131        C154   1.288       .  A
O131       Eu147   2.446       .  S
O132        C155   1.291       .  A
O132       Eu147   2.458   1_655  S
O133        C156   1.293       .  A
O133       Eu146   2.469   1_655  S
O134        C157   1.295       .  A
O134       Eu148   2.484       .  S
O135        C158   1.290       .  A
O135       Eu148   2.457   1_554  S
O136        C157   1.286       .  A
O136       Eu146   2.428       .  S
O137        C158   1.292       .  A
O137       Eu147   2.466       .  S
O138        C153   1.286       .  A
O138       Eu144   2.427   1_556  S
O139        C156   1.291       .  A
O139       Eu145   2.454       .  S
O140        C155   1.290       .  A
O140       Eu145   2.457   1_554  S
O141        C154   1.293       .  A
O141       Eu144   2.469       .  S
O142        C151   1.287       .  A
O142       Eu148   2.439       .  S
O143        C152   1.289       .  A
O143       Eu148   2.446   1_654  S
Eu144       O162   2.348       .  S
Eu144       O150   2.357   1_554  S
Eu145       O149   2.349   1_556  S
Eu145       O160   2.356       .  S
Eu146       O160   2.361   1_455  S
Eu146       O150   2.353       .  S
Eu147       O149   2.347   1_455  S
Eu147       O162   2.358       .  S
Eu148       O149   2.353   1_456  S
Eu148       O160   2.346   1_455  S
Eu148       O162   2.365   1_556  S
Eu148       O150   2.353       .  S
C151        C415   1.488       .  S
C152        C446   1.501       .  S
C153        C331   1.489       .  S
C154        C303   1.499       .  S
C155        C278   1.483       .  S
C156        C376   1.488       .  S
C157        C264   1.481       .  S
C158        C194   1.482       .  S
H159        O160   0.966       .  S
H161        O162   0.966       .  S
C163        C164   1.410   1_455  A
C163        C168   1.410       .  A
C164        C165   1.410       .  A
C164        C169   1.448       .  S
C165        C166   1.414   1_655  A
C165        C172   1.451       .  S
C166        C167   1.414       .  A
C167        C168   1.410       .  A
C167        C170   1.451       .  S
C168        C171   1.450       .  S
C169        N176   1.156       .  T
C170        N175   1.157       .  T
C171        N173   1.157       .  T
C172        N174   1.157       .  T
C177        C178   1.413       .  A
C177        C182   1.412       .  A
C178        C179   1.408       .  A
C178        C183   1.451       .  S
C179        C180   1.412       .  A
C179        C186   1.451       .  S
C180        C181   1.412       .  A
C181        C182   1.411       .  A
C181        C184   1.451   1_455  S
C182        C185   1.449   1_455  S
C183        N190   1.157       .  T
C184        N189   1.157       .  T
C185        N187   1.157       .  T
C186        N188   1.157       .  T
C191        C192   1.412   1_455  A
C191        C196   1.412       .  A
C192        C193   1.410       .  A
C192        C197   1.450       .  S
C193        C194   1.412   1_655  A
C193        C200   1.450       .  S
C194        C195   1.412       .  A
C195        C196   1.410       .  A
C195        C198   1.450       .  S
C196        C199   1.451       .  S
C197        N204   1.157       .  T
C198        N203   1.157       .  T
C199        N201   1.157       .  T
C200        N202   1.157       .  T
C205        C206   1.418       .  A
C205        C210   1.419   1_455  A
C206        C207   1.414       .  A
C206        C211   1.445       .  S
C207        C208   1.411       .  A
C207        C214   1.452       .  S
C208        C209   1.412   1_455  A
C209        C210   1.409       .  A
C209        C212   1.454       .  S
C210        C213   1.450       .  S
C211        N218   1.156       .  T
C212        N217   1.157       .  T
C213        N215   1.157       .  T
C214        N216   1.157       .  T
C219        C220   1.409       .  A
C219        C224   1.418   1_455  A
C220        C221   1.403       .  A
C220        C225   1.448       .  S
C221        C222   1.417       .  A
C221        C228   1.451       .  S
C222        C223   1.417   1_455  A
C223        C224   1.416       .  A
C223        C226   1.450       .  S
C224        C227   1.451       .  S
C225        N232   1.156       .  T
C226        N231   1.157       .  T
C227        N229   1.157       .  T
C228        N230   1.158       .  T
C233        C234   1.411   1_455  A
C233        C238   1.411       .  A
C234        C235   1.409       .  A
C234        C239   1.450       .  S
C235        C236   1.411   1_655  A
C235        C242   1.451       .  S
C236        C237   1.411       .  A
C237        C238   1.410       .  A
C237        C240   1.450       .  S
C238        C241   1.450       .  S
C239        N246   1.157       .  T
C240        N245   1.157       .  T
C241        N243   1.157       .  T
C242        N244   1.157       .  T
C247        C248   1.412       .  A
C247        C252   1.410   1_455  A
C248        C249   1.413       .  A
C248        C253   1.449       .  S
C249        C250   1.409       .  A
C249        C256   1.449       .  S
C250        C251   1.410   1_455  A
C251        C252   1.406       .  A
C251        C254   1.450       .  S
C252        C255   1.451       .  S
C253        N260   1.157       .  T
C254        N259   1.157       .  T
C255        N257   1.157       .  T
C256        N258   1.157       .  T
C261        C262   1.413   1_455  A
C261        C266   1.413       .  A
C262        C263   1.408       .  A
C262        C267   1.452       .  S
C263        C264   1.409   1_655  A
C263        C270   1.448       .  S
C264        C265   1.412       .  A
C265        C266   1.409       .  A
C265        C268   1.451       .  S
C266        C269   1.450       .  S
C267        N274   1.157       .  T
C268        N273   1.158       .  T
C269        N271   1.157       .  T
C270        N272   1.156       .  T
C275        C276   1.411       .  A
C275        C280   1.413   1_545  A
C276        C277   1.408       .  A
C276        C281   1.452       .  S
C277        C278   1.412       .  A
C277        C284   1.448       .  S
C278        C279   1.413   1_545  A
C279        C280   1.410       .  A
C279        C282   1.450       .  S
C280        C283   1.451       .  S
C281        N288   1.157       .  T
C282        N287   1.157       .  T
C283        N285   1.157       .  T
C284        N286   1.156       .  T
C289        C290   1.409       .  A
C289        C294   1.411   1_545  A
C290        C291   1.411       .  A
C290        C295   1.449       .  S
C291        C292   1.411       .  A
C291        C298   1.450       .  S
C292        C293   1.409   1_545  A
C293        C294   1.407       .  A
C293        C296   1.451       .  S
C294        C297   1.450       .  S
C295        N302   1.157       .  T
C296        N301   1.157       .  T
C297        N299   1.157       .  T
C298        N300   1.157       .  T
C303        C304   1.417   1_545  A
C303        C308   1.418       .  A
C304        C305   1.413       .  A
C304        C309   1.452       .  S
C305        C306   1.419   1_565  A
C305        C312   1.452       .  S
C306        C307   1.415       .  A
C307        C308   1.409       .  A
C307        C310   1.450       .  S
C308        C311   1.452       .  S
C309        N316   1.157       .  T
C310        N315   1.156       .  T
C311        N313   1.158       .  T
C312        N314   1.157       .  T
C317        C318   1.413       .  A
C317        C322   1.414   1_545  A
C318        C319   1.415       .  A
C318        C323   1.451       .  S
C319        C320   1.414       .  A
C319        C326   1.449       .  S
C320        C321   1.413   1_545  A
C321        C322   1.408       .  A
C321        C324   1.450       .  S
C322        C325   1.452       .  S
C323        N330   1.157       .  T
C324        N329   1.157       .  T
C325        N327   1.157       .  T
C326        N328   1.157       .  T
C331        C332   1.411       .  A
C331        C336   1.409   1_545  A
C332        C333   1.406       .  A
C332        C337   1.448       .  S
C333        C334   1.414       .  A
C333        C340   1.451       .  S
C334        C335   1.416   1_545  A
C335        C336   1.413       .  A
C335        C338   1.450       .  S
C336        C339   1.448       .  S
C337        N344   1.157       .  T
C338        N343   1.157       .  T
C339        N341   1.157       .  T
C340        N342   1.157       .  T
C345        C346   1.413   1_545  A
C345        C350   1.413       .  A
C346        C347   1.412       .  A
C346        C351   1.449       .  S
C347        C348   1.412   1_565  A
C347        C354   1.451       .  S
C348        C349   1.413       .  A
C349        C350   1.410       .  A
C349        C352   1.451       .  S
C350        C353   1.451       .  S
C351        N358   1.157       .  T
C352        N357   1.157       .  T
C353        N355   1.157       .  T
C354        N356   1.157       .  T
C359        C360   1.410   1_545  A
C359        C364   1.411       .  A
C360        C361   1.408       .  A
C360        C365   1.450       .  S
C361        C362   1.411   1_565  A
C361        C368   1.450       .  S
C362        C363   1.410       .  A
C363        C364   1.409       .  A
C363        C366   1.450       .  S
C364        C367   1.450       .  S
C365        N372   1.157       .  T
C366        N371   1.157       .  T
C367        N369   1.157       .  T
C368        N370   1.157       .  T
C373        C374   1.415       .  A
C373        C378   1.413   1_545  A
C374        C375   1.411       .  A
C374        C379   1.451       .  S
C375        C376   1.415       .  A
C375        C382   1.451       .  S
C376        C377   1.413   1_545  A
C377        C378   1.411       .  A
C377        C380   1.450       .  S
C378        C381   1.450       .  S
C379        N386   1.157       .  T
C380        N385   1.156       .  T
C381        N383   1.157       .  T
C382        N384   1.157       .  T
C387        C388   1.417       .  A
C387        C392   1.417   1_554  A
C388        C389   1.412       .  A
C388        C393   1.453       .  S
C389        C390   1.420       .  A
C389        C396   1.452       .  S
C390        C391   1.419   1_554  A
C391        C392   1.413       .  A
C391        C394   1.451       .  S
C392        C395   1.452       .  S
C393        N400   1.157       .  T
C394        N399   1.157       .  T
C395        N397   1.157       .  T
C396        N398   1.158       .  T
C401        C402   1.411       .  A
C401        C406   1.410   1_556  A
C402        C403   1.412       .  A
C402        C407   1.450       .  S
C403        C404   1.411       .  A
C403        C410   1.449       .  S
C404        C405   1.412   1_556  A
C405        C406   1.407       .  A
C405        C408   1.451       .  S
C406        C409   1.451       .  S
C407        N414   1.157       .  T
C408        N413   1.157       .  T
C409        N411   1.157       .  T
C410        N412   1.157       .  T
C415        C416   1.410   1_556  A
C415        C420   1.410       .  A
C416        C417   1.410       .  A
C416        C421   1.444       .  S
C417        C418   1.411   1_554  A
C417        C424   1.452       .  S
C418        C419   1.410       .  A
C419        C420   1.411       .  A
C419        C422   1.451       .  S
C420        C423   1.444       .  S
C421        N428   1.155       .  T
C422        N427   1.157       .  T
C423        N425   1.155       .  T
C424        N426   1.157       .  T
C429        C430   1.412       .  A
C429        C434   1.411   1_556  A
C430        C431   1.413       .  A
C430        C435   1.450       .  S
C431        C432   1.411       .  A
C431        C438   1.449       .  S
C432        C433   1.412   1_556  A
C433        C434   1.408       .  A
C433        C436   1.452       .  S
C434        C437   1.451       .  S
C435        N442   1.157       .  T
C436        N441   1.157       .  T
C437        N439   1.157       .  T
C438        N440   1.157       .  T
C443        C444   1.417       .  A
C443        C448   1.416   1_554  A
C444        C445   1.414       .  A
C444        C449   1.452       .  S
C445        C446   1.418       .  A
C445        C452   1.451       .  S
C446        C447   1.419   1_554  A
C447        C448   1.409       .  A
C447        C450   1.452       .  S
C448        C451   1.453       .  S
C449        N456   1.158       .  T
C450        N455   1.158       .  T
C451        N453   1.157       .  T
C452        N454   1.157       .  T
C457        C458   1.412   1_554  A
C457        C462   1.413       .  A
C458        C459   1.410       .  A
C458        C463   1.450       .  S
C459        C460   1.412   1_556  A
C459        C466   1.451       .  S
C460        C461   1.411       .  A
C461        C462   1.411       .  A
C461        C464   1.450       .  S
C462        C465   1.451       .  S
C463        N470   1.157       .  T
C464        N469   1.157       .  T
C465        N467   1.157       .  T
C466        N468   1.157       .  T
C471        C472   1.409       .  A
C471        C476   1.412   1_554  A
C472        C473   1.409       .  A
C472        C477   1.450       .  S
C473        C474   1.412       .  A
C473        C480   1.450       .  S
C474        C475   1.410   1_554  A
C475        C476   1.410       .  A
C475        C478   1.450       .  S
C476        C479   1.451       .  S
C477        N484   1.157       .  T
C478        N483   1.157       .  T
C479        N481   1.157       .  T
C480        N482   1.157       .  T
C485        C486   1.414       .  A
C485        C490   1.415   1_556  A
C486        C487   1.412       .  A
C486        C491   1.452       .  S
C487        C488   1.415   1_556  A
C487        C494   1.450       .  S
C488        C489   1.416       .  A
C489        C490   1.411       .  A
C489        C492   1.452       .  S
C490        C493   1.451       .  S
C491        N498   1.157       .  T
C492        N497   1.157       .  T
C493        N495   1.157       .  T
C494        N496   1.157       .  T
