geometry optimzed in LAMMPS
_audit_creation_date              2020-12-01 
_audit_creation_method            'lammps2cif' 
_symmetry_space_group_name_H-M    'P1' 
_symmetry_Int_Tables_number       1 
_symmetry_cell_setting            triclinic 
loop_ 
_symmetry_equiv_pos_as_xyz 
  x,y,z 
_cell_length_a                    41.01247422 
_cell_length_b                    41.041190060728454 
_cell_length_c                    34.30137518420251 
_cell_angle_alpha                 90.00730135939777 
_cell_angle_beta                  89.97761306391844 
_cell_angle_gamma                 120.01672734031017 
loop_ 
_atom_site_label 
_atom_site_type_symbol 
_atom_site_fract_x 
_atom_site_fract_y 
_atom_site_fract_z 
_atom_site_charge 
C1          C  0.48966034  0.72047309  0.09575646     0.79000
N2          N  0.48917253  0.74923153  0.07670112    -0.79300
C3          C  0.48728480  0.77675217  0.09678824     0.81500
N4          N  0.48628609  0.77561460  0.13634972    -0.79200
C5          C  0.48707114  0.74725845  0.15578820     0.81600
N6          N  0.48854607  0.71961344  0.13540987    -0.80900
C7          C  0.48785895  0.71808616  0.25767548     0.79000
N8          N  0.48686721  0.71814551  0.21810772    -0.79300
C9          C  0.48700707  0.74694811  0.19861812     0.81500
N10         N  0.48775133  0.77574535  0.21894662    -0.79200
C11         C  0.48876073  0.77603537  0.25859638     0.81600
N12         N  0.48899367  0.74716804  0.27771661    -0.80900
C13         C  0.22301533  0.77553034  0.25761378     0.79000
N14         N  0.19410111  0.74725362  0.27757988    -0.79300
C15         C  0.16546507  0.71794662  0.25839351     0.81500
N16         N  0.16581524  0.71724755  0.21873828    -0.79200
C17         C  0.19442941  0.74559065  0.19845080     0.81600
N18         N  0.22294683  0.77451507  0.21801990    -0.80900
C19         C  0.22102362  0.77503014  0.09558951     0.79000
N20         N  0.22185616  0.77463795  0.13525044    -0.79300
C21         C  0.19415173  0.74546269  0.15556758     0.81500
N22         N  0.16573235  0.71642114  0.13603178    -0.79200
C23         C  0.16459377  0.71639403  0.09645382     0.81600
N24         N  0.19221292  0.74585612  0.07645215    -0.80900
C25         C  0.16659210  0.45157066  0.09616701     0.79000
N26         N  0.16687741  0.45255898  0.13583092    -0.79300
C27         C  0.19590289  0.45363994  0.15609326     0.81500
N28         N  0.22490394  0.45420047  0.13651726    -0.79200
C29         C  0.22507280  0.45342831  0.09693748     0.81600
N30         N  0.19574272  0.45190439  0.07698880    -0.80900
C31         C  0.16675134  0.45402949  0.25811487     0.79000
N32         N  0.19445074  0.45235201  0.27807918    -0.79300
C33         C  0.22309156  0.45171351  0.25887559     0.81500
N34         N  0.22364178  0.45247355  0.21920487    -0.79200
C35         C  0.19581391  0.45375722  0.19895052     0.81600
N36         N  0.16758655  0.45468880  0.21854005    -0.80900
C37         C  0.75263328  0.24572980  0.25740130     0.79000
N38         N  0.72444285  0.21671044  0.27735682    -0.79300
C39         C  0.69491804  0.18829633  0.25817517     0.81500
N40         N  0.69394144  0.18895454  0.21852323    -0.79200
C41         C  0.72225913  0.21765145  0.19824811     0.81600
N42         N  0.75136224  0.24594750  0.21783292    -0.80900
C43         C  0.75197296  0.24426731  0.09541907     0.79000
N44         N  0.75129154  0.24534470  0.13506609    -0.79300
C45         C  0.72218906  0.21748646  0.15534375     0.81500
N46         N  0.69350027  0.18877333  0.13576030    -0.79200
C47         C  0.69378051  0.18739335  0.09620237     0.81600
N48         N  0.72320755  0.21508291  0.07622898    -0.80900
C49         C  0.69741673  0.51378753  0.09599894     0.79000
N50         N  0.69676723  0.51242857  0.13562058    -0.79300
C51         C  0.72427097  0.51037768  0.15562968     0.81500
N52         N  0.75229818  0.50922012  0.13581373    -0.79200
C53         C  0.75323151  0.51044861  0.09622272     0.81600
N54         N  0.72585848  0.51297089  0.07652199    -0.80900
C55         C  0.69595753  0.51227128  0.25768425     0.79000
N56         N  0.69573176  0.51083126  0.21812064    -0.79300
C57         C  0.72423604  0.51044491  0.19847554     0.81500
N58         N  0.75308362  0.51113423  0.21865188    -0.79200
C59         C  0.75372595  0.51273340  0.25827839     0.81600
N60         N  0.72515950  0.51346916  0.27756635    -0.80900
C61         C  0.43069704  0.18993076  0.25715472     0.79000
N62         N  0.43169878  0.19096947  0.21757411    -0.79300
C63         C  0.43164735  0.21965621  0.19800360     0.81500
N64         N  0.43098071  0.24779526  0.21827898    -0.79200
C65         C  0.42989908  0.24707277  0.25794136     0.81600
N66         N  0.42956933  0.21793490  0.27712316    -0.80900
C67         C  0.42831988  0.18983021  0.09528571     0.79000
N68         N  0.42828548  0.21873280  0.07601491    -0.79300
C69         C  0.43021857  0.24823750  0.09594577     0.81500
N70         N  0.43167385  0.24848574  0.13550873    -0.79200
C71         C  0.43129640  0.21963220  0.15513479     0.81600
N72         N  0.42988905  0.19046831  0.13491903    -0.80900
C73         C  0.49047677  0.60042608  0.00832200     0.41300
N74         N  0.48083089  0.54538807  0.49456316     0.00200
C75         C  0.53130246  0.48650164  0.32778505    -0.07700
H76         H  0.44390040  0.54061741  0.30323466     0.05700
C77         C  0.34328619  0.43519117  0.38306798    -0.08100
Co78       Co  0.52073135  0.54413978  0.42224144     0.74200
N79         N  0.47219021  0.53602183  0.35393733    -0.27200
Co80       Co  0.45658638  0.47969234  0.35626393     0.74100
C81         C  0.34459108  0.45350353  0.34606889     0.41400
N82         N  0.38446421  0.44897110  0.47545991    -0.00200
N83         N  0.39995721  0.46399707  0.35991551    -0.00100
N84         N  0.57277610  0.52771503  0.37156370    -0.48100
H85         H  0.52677628  0.62597257  0.45318681     0.05700
N86         N  0.49634649  0.56083666  0.37887739     0.00200
N87         N  0.44125779  0.42331260  0.35992371    -0.00100
C88         C  0.43090786  0.36810113  0.34561451     0.41500
N89         N  0.40903535  0.47294856  0.50069969    -0.26700
C90         C  0.57898378  0.53414200  0.47250050    -0.07600
N91         N  0.47377649  0.56453760  0.02096923    -0.47800
N92         N  0.44800252  0.40411285  0.33328009    -0.48000
C93         C  0.57747433  0.51588146  0.00964916     0.41300
N94         N  0.53785291  0.51973341  0.37925829     0.00200
N95         N  0.45003135  0.43253707  0.50056549    -0.26700
N96         N  0.50185061  0.56661899  0.46553662    -0.27200
N97         N  0.42596500  0.40790780  0.47542097    -0.00200
H98         H  0.47823057  0.42741328  0.05108855     0.05700
H99         H  0.39444062  0.34256749  0.40068640     0.05700
N100        N  0.51321244  0.49570101  0.35408014    -0.27200
N101        N  0.37884454  0.44304835  0.38901792    -0.26900
N102        N  0.52211585  0.50484373  0.49497786     0.00200
C103        C  0.48373352  0.59321499  0.33906151     0.41600
C104        C  0.39088858  0.48203103  0.02705776    -0.08100
N105        N  0.42010101  0.40205749  0.38884531    -0.26900
H106        H  0.31940773  0.41748917  0.40138823     0.05700
N107        N  0.50413739  0.59562209  0.37098873    -0.48100
H108        H  0.40367206  0.50050423  0.05174674     0.05700
C109        C  0.43848102  0.37511565  0.01471753     0.41400
C110        C  0.50922032  0.60202112  0.47146752    -0.07600
Co111      Co  0.46557552  0.48899188  0.49841891     0.73800
N112        N  0.34954182  0.44097062  0.48308355    -0.47800
C113        C  0.57069815  0.50761172  0.33949448     0.41700
N114        N  0.54141282  0.49856244  0.02188694    -0.47800
Co115      Co  0.40152068  0.42466768  0.43237108     0.73900
C116        C  0.41225826  0.36654843  0.38256205    -0.08100
C117        C  0.46263928  0.55378520  0.32764841    -0.07700
N118        N  0.54337594  0.52592219  0.46600839    -0.27200
N119        N  0.38052130  0.47050146  0.33335117    -0.48000
H120        H  0.51839061  0.46792818  0.30319894     0.05700
C121        C  0.45954860  0.41448885  0.02658250    -0.08100
Cl122      Cl  0.46113875  0.48438223  0.42732827    -0.51100
C123        C  0.35157157  0.46097745  0.01518719     0.41400
H124        H  0.60299661  0.55202244  0.45442218     0.05600
N125        N  0.41815708  0.37306691  0.48289361    -0.47800
C126        C  0.04532519  0.59657271  0.34552910     0.41300
N127        N  0.99991773  0.54149455  0.35937984     0.00200
C128        C  0.89064641  0.48188315  0.02607480    -0.07700
H129        H  0.03279946  0.53788877  0.05124382     0.05700
C130        C  0.02900517  0.43270820  0.47143797    -0.08100
Co131      Co  0.95916771  0.54019395  0.43197328     0.74200
N132        N  0.99988307  0.53265365  0.50027208    -0.27200
Co133      Co  0.95932776  0.47616384  0.49798372     0.74100
C134        C  0.04611745  0.45152395  0.00830403     0.41400
N135        N  0.00075020  0.44564994  0.37861214    -0.00200
N136        N  0.00059387  0.46100679  0.49430760    -0.00100
N137        N  0.89055198  0.52333195  0.48255345    -0.48100
H138        H  0.03463409  0.62202974  0.40077402     0.05700
N139        N  0.00052869  0.55723609  0.47503546     0.00200
N140        N  0.91851525  0.41966619  0.49432663    -0.00100
C141        C  0.87315134  0.36456492  0.00819957     0.41500
N142        N  0.99981968  0.46950878  0.35347144    -0.26700
C143        C  0.89056361  0.52971648  0.38233598    -0.07600
N144        N  0.02611909  0.56065628  0.33292918    -0.47800
N145        N  0.89214672  0.40054190  0.02061484    -0.48000
C146        C  0.87324343  0.51092525  0.34557613     0.41300
N147        N  0.91782078  0.51579156  0.47511701     0.00200
N148        N  0.91848697  0.42836936  0.35375899    -0.26700
N149        N  0.00022518  0.56271154  0.38843377    -0.27200
N150        N  0.91807535  0.40384688  0.37894668    -0.00200
H151        H  0.88557100  0.42286001  0.30269515     0.05700
H152        H  0.88429363  0.33902705  0.45326465     0.05700
N153        N  0.91837125  0.49166088  0.50015583    -0.27200
N154        N  0.00092578  0.44001462  0.46534268    -0.26900
N155        N  0.91787165  0.50021026  0.35979362     0.00200
C156        C  0.04544095  0.59005853  0.01478051     0.41600
C157        C  0.02724895  0.47923425  0.32724571    -0.08100
N158        N  0.91853804  0.39840126  0.46549942    -0.26900
H159        H  0.03548380  0.41518748  0.45321247     0.05700
N160        N  0.02746285  0.59212173  0.48268524    -0.48100
H161        H  0.03278434  0.49792080  0.30279475     0.05700
C162        C  0.87328921  0.37079526  0.33914884     0.41400
C163        C  0.02819921  0.59812529  0.38242195    -0.07600
Co164      Co  0.95898215  0.48495227  0.35588000     0.73800
N165        N  0.02809185  0.43828780  0.37097718    -0.47800
C166        C  0.87216181  0.50278215  0.01427530     0.41700
N167        N  0.89184932  0.49349320  0.33326973    -0.47800
Co168      Co  0.95960582  0.42111062  0.42192841     0.73900
C169        C  0.89061517  0.36294547  0.47154373    -0.08100
C170        C  0.02714358  0.55073639  0.02659721    -0.07700
N171        N  0.91802944  0.52160280  0.38858537    -0.27200
N172        N  0.02681135  0.46818211  0.02076268    -0.48000
H173        H  0.88482134  0.46304929  0.05044771     0.05700
C174        C  0.89130547  0.41012763  0.32739345    -0.08100
Cl175      Cl  0.95926550  0.48059133  0.42693186    -0.51100
C176        C  0.04600193  0.45865110  0.33899884     0.41400
H177        H  0.88468060  0.54775971  0.40040545     0.05600
N178        N  0.89132839  0.36887094  0.37126001    -0.47800
C179        C  0.48627334  0.89533951  0.34591344     0.41300
N180        N  0.47675313  0.94083584  0.35968582     0.00200
C181        C  0.52812469  0.04984141  0.02671292    -0.07700
H182        H  0.44028825  0.90867349  0.05162043     0.05700
C183        C  0.33963499  0.91390817  0.47169784    -0.08100
Co184      Co  0.51668953  0.98156947  0.43211563     0.74200
N185        N  0.46811226  0.94129999  0.50053061    -0.27200
Co186      Co  0.45301024  0.98246895  0.49822817     0.74100
C187        C  0.34111494  0.89672303  0.00857911     0.41400
N188        N  0.38063815  0.94158597  0.37898707    -0.00200
N189        N  0.39631987  0.94194303  0.49470234    -0.00100
N190        N  0.56927046  0.04947223  0.48287790    -0.48100
H191        H  0.52226063  0.90578972  0.40117274     0.05700
N192        N  0.49194774  0.94037098  0.47531491     0.00200
N193        N  0.43816740  0.02388947  0.49443043    -0.00100
C194        C  0.42850133  0.06924026  0.00838181     0.41500
N195        N  0.40517935  0.94212386  0.35370387    -0.26700
C196        C  0.57535072  0.05018247  0.38228889    -0.07600
N197        N  0.46977891  0.91471804  0.33316587    -0.47800
N198        N  0.44534550  0.05012094  0.02085052    -0.48000
C199        C  0.57393567  0.06763933  0.34553906     0.41300
N200        N  0.53420557  0.02292182  0.47519374     0.00200
N201        N  0.44661392  0.02344171  0.35379578    -0.26700
N202        N  0.49756603  0.94038274  0.38877279    -0.27200
N203        N  0.42263488  0.02426188  0.37890388    -0.00200
H204        H  0.47452089  0.05610690  0.30277985     0.05700
H205        H  0.39190952  0.05833828  0.45346382     0.05700
N206        N  0.50974719  0.02266191  0.50039385    -0.27200
N207        N  0.37514448  0.94180617  0.46567978    -0.26900
N208        N  0.51852461  0.02287824  0.35971875     0.00200
C209        C  0.47951861  0.89547687  0.01520525     0.41600
C210        C  0.38693848  0.91513197  0.32718242    -0.08100
N211        N  0.41700224  0.02407302  0.46556708    -0.26900
H212        H  0.31571451  0.90752335  0.45337161     0.05700
N213        N  0.49964768  0.91330885  0.48309230    -0.48100
H214        H  0.39969127  0.90946166  0.30244021     0.05700
C215        C  0.43507704  0.06919046  0.33894886     0.41400
C216        C  0.50480077  0.91228022  0.38285974    -0.07600
Co217      Co  0.46185732  0.98232332  0.35602999     0.73800
N218        N  0.34563741  0.91487806  0.37125321    -0.47800
C219        C  0.56750393  0.06763273  0.01496396     0.41700
N220        N  0.53786436  0.04901069  0.33328860    -0.47800
Co221      Co  0.39798973  0.98292686  0.42212727     0.73900
C222        C  0.40956713  0.05201642  0.47165065    -0.08100
C223        C  0.45869214  0.91404181  0.02692315    -0.07700
N224        N  0.53971494  0.02265370  0.38852872    -0.27200
N225        N  0.37706485  0.91578272  0.02113046    -0.48000
H226        H  0.51541032  0.05569717  0.05135363     0.05700
C227        C  0.45602379  0.05069228  0.32740128    -0.08100
Cl228      Cl  0.45738038  0.98232629  0.42712654    -0.51100
C229        C  0.34760265  0.89705527  0.33897417     0.41400
H230        H  0.59926589  0.05618642  0.40044769     0.05600
N231        N  0.41487546  0.05130188  0.37104539    -0.47800
C232        C  0.41869952  0.27650621  0.03640507    -0.14500
C233        C  0.43194101  0.28041106  0.07488713     0.07600
C234        C  0.44741172  0.31564398  0.09318963    -0.14500
C235        C  0.44986463  0.34644519  0.07342185    -0.14500
C236        C  0.43639982  0.34255270  0.03512273     0.07600
C237        C  0.42061904  0.30729826  0.01678921    -0.14500
H238        H  0.40654845  0.24961381  0.02163572     0.11600
H239        H  0.45806682  0.31956917  0.12272515     0.11600
H240        H  0.46192939  0.37317045  0.08844000     0.11600
H241        H  0.41004843  0.30362583  0.48723459     0.11600
C242        C  0.43972224  0.13542859  0.09064938    -0.14500
C243        C  0.42757680  0.15847369  0.07318940     0.07600
C244        C  0.41548060  0.15177389  0.03414774    -0.14500
C245        C  0.41543937  0.12257735  0.01306966    -0.14500
C246        C  0.42798458  0.09987180  0.03045859     0.07600
C247        C  0.44019918  0.10662573  0.06940055    -0.14500
H248        H  0.44942785  0.14000625  0.12057745     0.11600
H249        H  0.40588114  0.16900770  0.01990658     0.11600
H250        H  0.40601623  0.11812106  0.48306215     0.11600
H251        H  0.44997912  0.08950031  0.08355519     0.11600
C252        C  0.41809916  0.27262772  0.31951426    -0.14500
C253        C  0.42944979  0.27782462  0.28020311     0.07600
C254        C  0.44092883  0.31285528  0.26264379    -0.14500
C255        C  0.44153312  0.34214941  0.28405931    -0.14500
C256        C  0.43009084  0.33687467  0.32328703     0.07600
C257        C  0.41816410  0.30177469  0.34075346    -0.14500
H258        H  0.40898437  0.24593424  0.33386980     0.11600
H259        H  0.44999913  0.31784625  0.23249930     0.11600
H260        H  0.45081309  0.36892825  0.26981693     0.11600
H261        H  0.40934608  0.29694311  0.37096421     0.11600
C262        C  0.41979788  0.15104321  0.31739528    -0.14500
C263        C  0.43131016  0.15880194  0.27822535     0.07600
C264        C  0.44372630  0.13663795  0.25927666    -0.14500
C265        C  0.44506577  0.10767277  0.27913856    -0.14500
C266        C  0.43349679  0.09985646  0.31820541     0.07600
C267        C  0.42056108  0.12157473  0.33710667    -0.14500
H268        H  0.40993457  0.16754860  0.33271895     0.11600
H269        H  0.45287457  0.14194372  0.22916492     0.11600
H270        H  0.45484063  0.09119196  0.26366664     0.11600
H271        H  0.41150714  0.11607696  0.36724255     0.11600
C272        C  0.62988995  0.49995273  0.25969115    -0.14500
C273        C  0.66429627  0.51180234  0.27880431     0.07600
C274        C  0.66785962  0.52271018  0.31816979    -0.14500
C275        C  0.63756671  0.52185373  0.33791516    -0.14500
C276        C  0.60307980  0.50943441  0.31881455     0.07600
C277        C  0.59955226  0.49853315  0.27955854    -0.14500
H278        H  0.62617937  0.49127591  0.22943341     0.11600
H279        H  0.69408963  0.53210315  0.33363445     0.11600
H280        H  0.64091641  0.53037871  0.36821364     0.11600
H281        H  0.57343061  0.48919981  0.26394647     0.11600
C282        C  0.79265001  0.52677709  0.31883932    -0.14500
C283        C  0.78489054  0.51313699  0.28036836     0.07600
C284        C  0.80669338  0.49920930  0.26350886    -0.14500
C285        C  0.83526100  0.49839208  0.28488141    -0.14500
C286        C  0.84300241  0.51202226  0.32331614     0.07600
C287        C  0.82160879  0.52645775  0.34002651    -0.14500
H288        H  0.77639837  0.53782267  0.33254767     0.11600
H289        H  0.80127570  0.48835246  0.23400462     0.11600
H290        H  0.85138462  0.48717087  0.27123367     0.11600
H291        H  0.82686244  0.53705672  0.36960819     0.11600
C292        C  0.67194213  0.52578976  0.03455120    -0.14500
C293        C  0.66715821  0.51551206  0.07416128     0.07600
C294        C  0.63290662  0.50618730  0.09245333    -0.14500
C295        C  0.60385411  0.50640998  0.07139725    -0.14500
C296        C  0.60864941  0.51653741  0.03180754     0.07600
C297        C  0.64306118  0.52656614  0.01366184    -0.14500
H298        H  0.69804429  0.53326656  0.01964496     0.11600
H299        H  0.62826020  0.49805103  0.12287498     0.11600
H300        H  0.57760145  0.49866476  0.08613487     0.11600
H301        H  0.64744786  0.53433136  0.48314588     0.11600
C302        C  0.80379845  0.49358600  0.09317085    -0.14500
C303        C  0.78347795  0.50845023  0.07486277     0.07600
C304        C  0.79227740  0.52114265  0.03613288    -0.14500
C305        C  0.82124499  0.51944831  0.01635098    -0.14500
C306        C  0.84139304  0.50443755  0.03474796     0.07600
C307        C  0.83224574  0.49134867  0.07323834    -0.14500
H308        H  0.79752120  0.48335490  0.12288387     0.11600
H309        H  0.77711495  0.53281001  0.02130767     0.11600
H310        H  0.82775029  0.52966719  0.98664572     0.11600
H311        H  0.84739429  0.47984090  0.08831434     0.11600
C312        C  0.62735438  0.13444948  0.09436790    -0.14500
C313        C  0.66188311  0.15638372  0.07521134     0.07600
C314        C  0.66531975  0.14860177  0.03596229    -0.14500
C315        C  0.63475572  0.11935365  0.01636991    -0.14500
C316        C  0.60014710  0.09793637  0.03551056     0.07600
C317        C  0.59676587  0.10572450  0.07465494    -0.14500
H318        H  0.62374202  0.13977125  0.12454028     0.11600
H319        H  0.69164307  0.16495286  0.02047858     0.11600
H320        H  0.63799834  0.11383002  0.48615332     0.11600
H321        H  0.57055482  0.08942953  0.09029478     0.11600
C322        C  0.79075582  0.26888555  0.03454443    -0.14500
C323        C  0.78338555  0.27479551  0.07319175     0.07600
C324        C  0.80587252  0.31035944  0.09012895    -0.14500
C325        C  0.83480195  0.33947012  0.06877945    -0.14500
C326        C  0.84228928  0.33350170  0.03025855     0.07600
C327        C  0.82010047  0.29789043  0.01337158    -0.14500
H328        H  0.77396173  0.24174442  0.02071440     0.11600
H329        H  0.80076224  0.31588790  0.11972125     0.11600
H330        H  0.85146647  0.36666165  0.08255684     0.11600
H331        H  0.82510963  0.29250402  0.48370599     0.11600
C332        C  0.62842177  0.13496808  0.26361744    -0.14500
C333        C  0.66414558  0.15707145  0.28041982     0.07600
C334        C  0.67008843  0.14934994  0.31891283    -0.14500
C335        C  0.64097577  0.12007543  0.34007361    -0.14500
C336        C  0.60518599  0.09829726  0.32336472     0.07600
C337        C  0.59919789  0.10610150  0.28496835    -0.14500
H338        H  0.62287734  0.14031291  0.23412900     0.11600
H339        H  0.69735406  0.16580528  0.33263147     0.11600
H340        H  0.64641915  0.11482525  0.36961864     0.11600
H341        H  0.57188971  0.08975200  0.27129952     0.11600
C342        C  0.81948045  0.30463657  0.33817767    -0.14500
C343        C  0.84302368  0.33832566  0.31842428     0.07600
C344        C  0.83729481  0.34105840  0.27852578    -0.14500
C345        C  0.80835887  0.31074372  0.25867547    -0.14500
C346        C  0.78412911  0.27720079  0.27844840     0.07600
C347        C  0.79002152  0.27440160  0.31843370    -0.14500
H348        H  0.82342742  0.30195730  0.36899182     0.11600
H349        H  0.85534928  0.36657448  0.26248338     0.11600
H350        H  0.80466172  0.31386638  0.22790833     0.11600
H351        H  0.77192694  0.24887069  0.33445640     0.11600
C352        C  0.24975578  0.44282407  0.32126345    -0.14500
C353        C  0.25372406  0.45100164  0.28109615     0.07600
C354        C  0.28759160  0.45932773  0.26258124    -0.14500
C355        C  0.31705135  0.46018051  0.28385014    -0.14500
C356        C  0.31307394  0.45211361  0.32392178     0.07600
C357        C  0.27906167  0.44310036  0.34240650    -0.14500
H358        H  0.22398972  0.43619553  0.33640921     0.11600
H359        H  0.29162956  0.46582779  0.23174857     0.11600
H360        H  0.34296175  0.46704132  0.26886337     0.11600
H361        H  0.27532865  0.43691678  0.37330999     0.11600
C362        C  0.12828052  0.44407270  0.31834977    -0.14500
C363        C  0.13609358  0.45542859  0.27916309     0.07600
C364        C  0.11422891  0.46809893  0.26006206    -0.14500
C365        C  0.08518018  0.46944317  0.27970147    -0.14500
C366        C  0.07708136  0.45767100  0.31866747     0.07600
C367        C  0.09875638  0.44487164  0.33784152    -0.14500
H368        H  0.14465010  0.43411945  0.33378838     0.11600
H369        H  0.11968630  0.47721476  0.22994932     0.11600
H370        H  0.06875331  0.47919336  0.26408774     0.11600
H371        H  0.09305650  0.43577268  0.36795121     0.11600
C372        C  0.29070205  0.46420555  0.09579352    -0.14500
C373        C  0.25724759  0.45493328  0.07582877     0.07600
C374        C  0.25507946  0.44753408  0.03557070    -0.14500
C375        C  0.28567172  0.44912198  0.01581764    -0.14500
C376        C  0.31910663  0.45880434  0.03583789     0.07600
C377        C  0.32140750  0.46640572  0.07592418    -0.14500
H378        H  0.29335662  0.47012065  0.12676235     0.11600
H379        H  0.22969694  0.44030609  0.01935404     0.11600
H380        H  0.28339698  0.44328539  0.98482993     0.11600
H381        H  0.34678160  0.47357170  0.09211197     0.11600
C382        C  0.12914948  0.43928298  0.03459767    -0.14500
C383        C  0.13524174  0.45076505  0.07386680     0.07600
C384        C  0.11157357  0.46216704  0.09130443    -0.14500
C385        C  0.08282713  0.46258635  0.06981003    -0.14500
C386        C  0.07670105  0.45101150  0.03062802     0.09400
C387        C  0.09999802  0.43915491  0.01327583    -0.14500
H388        H  0.14683774  0.43022909  0.02034553     0.11600
H389        H  0.11562396  0.47134780  0.12140567     0.11600
H390        H  0.06523688  0.47181521  0.08396977     0.11600
H391        H  0.09603940  0.43022538  0.48310815     0.11600
C392        C  0.12745247  0.68708555  0.03557425    -0.14500
C393        C  0.13386297  0.68427358  0.07539949     0.07600
C394        C  0.11080257  0.65025084  0.09497681    -0.14500
C395        C  0.08226023  0.61959514  0.07511662    -0.14500
C396        C  0.07579231  0.62248991  0.03543807     0.07600
C397        C  0.09841834  0.65651987  0.01584741    -0.14500
H398        H  0.14469138  0.71296136  0.01970399     0.11600
H399        H  0.11502619  0.64711292  0.12560601     0.11600
H400        H  0.06497823  0.59377815  0.09103194     0.11600
H401        H  0.09393726  0.65932052  0.98519915     0.11600
C402        C  0.24667001  0.81181838  0.03359081    -0.14500
C403        C  0.25141612  0.80661338  0.07332620     0.07600
C404        C  0.28573225  0.83155977  0.09142645    -0.14500
C405        C  0.31478009  0.86067916  0.07020742    -0.14500
C406        C  0.30997652  0.86591572  0.03059842     0.07600
C407        C  0.27558077  0.84137086  0.01251041    -0.14500
H408        H  0.22054294  0.79313405  0.01877926     0.11600
H409        H  0.29039619  0.82828828  0.12189747     0.11600
H410        H  0.34101409  0.87926148  0.08491150     0.11600
H411        H  0.27119562  0.84464039  0.48196693     0.11600
C412        C  0.12818130  0.69209105  0.31994528    -0.14500
C413        C  0.13438660  0.68704604  0.28061266     0.07600
C414        C  0.11092026  0.65206055  0.26292372    -0.14500
C415        C  0.08220188  0.62266659  0.28421177    -0.14500
C416        C  0.07593357  0.62780642  0.32343149     0.07600
C417        C  0.09907567  0.66283499  0.34106439    -0.14500
H418        H  0.14569945  0.71875326  0.33439093     0.11600
H419        H  0.11505122  0.64719951  0.23275537     0.11600
H420        H  0.06472428  0.59593847  0.26985939     0.11600
H421        H  0.09500384  0.66755242  0.37128263     0.11600
C422        C  0.25198915  0.81239840  0.31885474    -0.14500
C423        C  0.25450499  0.80700023  0.27867580     0.07600
C424        C  0.28764352  0.83191532  0.25865275    -0.14500
C425        C  0.31777424  0.86117303  0.27838191    -0.14500
C426        C  0.31525675  0.86650599  0.31842006     0.07600
C427        C  0.28202632  0.84216932  0.33848774    -0.14500
H428        H  0.22679440  0.79374114  0.33509890     0.11600
H429        H  0.29055279  0.82860129  0.22774537     0.11600
H430        H  0.34296902  0.87981385  0.26214326     0.11600
H431        H  0.27957053  0.84576111  0.36943530     0.11600
C432        C  0.49923622  0.66031064  0.33697500    -0.14500
C433        C  0.48509650  0.62533862  0.31844299     0.07600
C434        C  0.47216807  0.62116837  0.27986928    -0.14500
C435        C  0.47343198  0.65143649  0.26008662    -0.14500
C436        C  0.48715836  0.68635974  0.27866007     0.07600
C437        C  0.49994886  0.69052038  0.31735385    -0.14500
H438        H  0.50933646  0.66416278  0.36673342     0.11600
H439        H  0.46140214  0.59463772  0.26469261     0.11600
H440        H  0.46323981  0.64733457  0.23035230     0.11600
H441        H  0.51082200  0.71719786  0.33232321     0.11600
C442        C  0.47922354  0.86088337  0.28368738    -0.14500
C443        C  0.48737149  0.86506251  0.32374477     0.07600
C444        C  0.49649528  0.84016572  0.34220261    -0.14500
C445        C  0.49701232  0.81128917  0.32104165    -0.14500
C446        C  0.48892266  0.80707860  0.28087012     0.07600
C447        C  0.48029051  0.83239740  0.26239245    -0.14500
H448        H  0.47225209  0.87983241  0.26871562     0.11600
H449        H  0.50271505  0.84265229  0.37309477     0.11600
H450        H  0.50383629  0.79231442  0.33617564     0.11600
H451        H  0.47382798  0.82992028  0.23155315     0.11600
C452        C  0.48204919  0.65605837  0.09162583    -0.14500
C453        C  0.49074141  0.69011797  0.07340382     0.07600
C454        C  0.49982208  0.69461545  0.03343953    -0.14500
C455        C  0.50024022  0.66569266  0.01223612    -0.14500
C456        C  0.49102786  0.63154647  0.03045185     0.07600
C457        C  0.48189930  0.62699358  0.07029393    -0.14500
H458        H  0.47481365  0.65160067  0.12228391     0.11600
H459        H  0.50670872  0.72053516  0.01852424     0.11600
H460        H  0.50718300  0.66984841  0.98150624     0.11600
H461        H  0.47480412  0.60095346  0.08508201     0.11600
C462        C  0.49668494  0.81499473  0.03655342    -0.14500
C463        C  0.48563092  0.80730734  0.07582807     0.07600
C464        C  0.47257328  0.82887506  0.09490614    -0.14500
C465        C  0.47027577  0.85730431  0.07504979    -0.14500
C466        C  0.48151631  0.86510515  0.03590538     0.07600
C467        C  0.49494285  0.84389153  0.01685964    -0.14500
H468        H  0.50697103  0.79889830  0.02113141     0.11600
H469        H  0.46371653  0.82353855  0.12510438     0.11600
H470        H  0.46012060  0.87343315  0.09058080     0.11600
H471        H  0.50373809  0.84941175  0.48664814     0.11600
C472        C  0.48966033  0.72047316  0.59575639     0.79000
N473        N  0.48917250  0.74923160  0.57670113    -0.79300
C474        C  0.48728485  0.77675229  0.59678821     0.81500
N475        N  0.48628607  0.77561461  0.63634968    -0.79200
C476        C  0.48707116  0.74725849  0.65578812     0.81600
N477        N  0.48854596  0.71961339  0.63540981    -0.80900
C478        C  0.48785890  0.71808605  0.75767546     0.79000
N479        N  0.48686723  0.71814538  0.71810764    -0.79300
C480        C  0.48700698  0.74694796  0.69861813     0.81500
N481        N  0.48775123  0.77574527  0.71894667    -0.79200
C482        C  0.48876060  0.77603533  0.75859641     0.81600
N483        N  0.48899358  0.74716803  0.77771657    -0.80900
C484        C  0.22301534  0.77553042  0.75761369     0.79000
N485        N  0.19410120  0.74725361  0.77757992    -0.79300
C486        C  0.16546509  0.71794671  0.75839349     0.81500
N487        N  0.16581529  0.71724763  0.71873829    -0.79200
C488        C  0.19442939  0.74559069  0.69845073     0.81600
N489        N  0.22294683  0.77451503  0.71801980    -0.80900
C490        C  0.22102364  0.77503014  0.59558950     0.79000
N491        N  0.22185613  0.77463802  0.63525041    -0.79300
C492        C  0.19415168  0.74546272  0.65556756     0.81500
N493        N  0.16573236  0.71642114  0.63603183    -0.79200
C494        C  0.16459373  0.71639404  0.59645392     0.81600
N495        N  0.19221294  0.74585609  0.57645218    -0.80900
C496        C  0.16659200  0.45157051  0.59616703     0.79000
N497        N  0.16687741  0.45255893  0.63583096    -0.79300
C498        C  0.19590296  0.45364009  0.65609340     0.81500
N499        N  0.22490389  0.45420046  0.63651744    -0.79200
C500        C  0.22507271  0.45342825  0.59693758     0.81600
N501        N  0.19574266  0.45190440  0.57698879    -0.80900
C502        C  0.16675131  0.45402947  0.75811485     0.79000
N503        N  0.19445067  0.45235194  0.77807914    -0.79300
C504        C  0.22309148  0.45171339  0.75887563     0.81500
N505        N  0.22364175  0.45247344  0.71920495    -0.79200
C506        C  0.19581386  0.45375709  0.69895061     0.81600
N507        N  0.16758661  0.45468890  0.71854007    -0.80900
C508        C  0.75263333  0.24572984  0.75740120     0.79000
N509        N  0.72444284  0.21671051  0.77735674    -0.79300
C510        C  0.69491798  0.18829634  0.75817523     0.81500
N511        N  0.69394135  0.18895451  0.71852332    -0.79200
C512        C  0.72225908  0.21765141  0.69824819     0.81600
N513        N  0.75136225  0.24594756  0.71783290    -0.80900
C514        C  0.75197293  0.24426731  0.59541902     0.79000
N515        N  0.75129145  0.24534465  0.63506611    -0.79300
C516        C  0.72218898  0.21748644  0.65534382     0.81500
N517        N  0.69350021  0.18877333  0.63576035    -0.79200
C518        C  0.69378049  0.18739336  0.59620239     0.81600
N519        N  0.72320749  0.21508289  0.57622891    -0.80900
C520        C  0.69741672  0.51378748  0.59599897     0.79000
N521        N  0.69676721  0.51242859  0.63562067    -0.79300
C522        C  0.72427089  0.51037762  0.65562977     0.81500
N523        N  0.75229815  0.50922020  0.63581380    -0.79200
C524        C  0.75323155  0.51044868  0.59622277     0.81600
N525        N  0.72585855  0.51297098  0.57652197    -0.80900
C526        C  0.69595749  0.51227125  0.75768418     0.79000
N527        N  0.69573174  0.51083129  0.71812058    -0.79300
C528        C  0.72423604  0.51044497  0.69847557     0.81500
N529        N  0.75308362  0.51113431  0.71865195    -0.79200
C530        C  0.75372594  0.51273347  0.75827845     0.81600
N531        N  0.72515947  0.51346919  0.77756635    -0.80900
C532        C  0.43069704  0.18993075  0.75715469     0.79000
N533        N  0.43169878  0.19096935  0.71757406    -0.79300
C534        C  0.43164723  0.21965603  0.69800350     0.81500
N535        N  0.43098067  0.24779514  0.71827883    -0.79200
C536        C  0.42989906  0.24707274  0.75794119     0.81600
N537        N  0.42956936  0.21793494  0.77712310    -0.80900
C538        C  0.42831980  0.18983013  0.59528560     0.79000
N539        N  0.42828548  0.21873267  0.57601482    -0.79300
C540        C  0.43021857  0.24823738  0.59594568     0.81500
N541        N  0.43167383  0.24848574  0.63550870    -0.79200
C542        C  0.43129641  0.21963221  0.65513471     0.81600
N543        N  0.42988895  0.19046827  0.63491893    -0.80900
C544        C  0.49047682  0.60042605  0.50832193     0.41300
N545        N  0.48083087  0.54538808  0.99456308     0.00200
C546        C  0.53130259  0.48650161  0.82778523    -0.07700
H547        H  0.44390064  0.54061781  0.80323483     0.05700
C548        C  0.34328607  0.43519109  0.88306800    -0.08100
Co549      Co  0.52073143  0.54413978  0.92224145     0.74200
N550        N  0.47219027  0.53602186  0.85393742    -0.27200
Co551      Co  0.45658632  0.47969227  0.85626395     0.74100
C552        C  0.34459112  0.45350359  0.84606895     0.41400
N553        N  0.38446423  0.44897111  0.97545998    -0.00200
N554        N  0.39995713  0.46399689  0.85991561    -0.00100
N555        N  0.57277611  0.52771497  0.87156373    -0.48100
H556        H  0.52677630  0.62597258  0.95318689     0.05700
N557        N  0.49634655  0.56083663  0.87887746     0.00200
N558        N  0.44125781  0.42331244  0.85992388    -0.00100
C559        C  0.43090772  0.36810098  0.84561455     0.41500
N560        N  0.40903539  0.47294865  0.00069966    -0.26700
C561        C  0.57898362  0.53414190  0.97250053    -0.07600
N562        N  0.47377654  0.56453760  0.52096923    -0.47800
N563        N  0.44800245  0.40411274  0.83328016    -0.48000
C564        C  0.57747438  0.51588152  0.50964922     0.41300
N565        N  0.53785298  0.51973338  0.87925836     0.00200
N566        N  0.45003162  0.43253721  0.00056570    -0.26700
N567        N  0.50185068  0.56661902  0.96553661    -0.27200
N568        N  0.42596508  0.40790792  0.97542118    -0.00200
H569        H  0.47822996  0.42741259  0.55108773     0.05700
H570        H  0.39444049  0.34256724  0.90068707     0.05700
N571        N  0.51321240  0.49570088  0.85408020    -0.27200
N572        N  0.37884443  0.44304833  0.88901809    -0.26900
N573        N  0.52211581  0.50484376  0.99497786     0.00200
C574        C  0.48373353  0.59321505  0.83906175     0.41600
C575        C  0.39088859  0.48203110  0.52705767    -0.08100
N576        N  0.42010091  0.40205726  0.88884542    -0.26900
H577        H  0.31940754  0.41748973  0.90138877     0.05700
N578        N  0.50413739  0.59562212  0.87098894    -0.48100
H579        H  0.40367210  0.50050441  0.55174655     0.05700
C580        C  0.43848074  0.37511534  0.51471715     0.41400
C581        C  0.50922034  0.60202115  0.97146755    -0.07600
Co582      Co  0.46557554  0.48899187  0.99841887     0.73800
N583        N  0.34954185  0.44097073  0.98308356    -0.47800
C584        C  0.57069824  0.50761176  0.83949441     0.41700
N585        N  0.54141282  0.49856256  0.52188705    -0.47800
Co586      Co  0.40152073  0.42466771  0.93237116     0.73900
C587        C  0.41225810  0.36654818  0.88256225    -0.08100
C588        C  0.46263941  0.55378532  0.82764850    -0.07700
N589        N  0.54337579  0.52592210  0.96600843    -0.27200
N590        N  0.38052136  0.47050147  0.83335126    -0.48000
H591        H  0.51839097  0.46792844  0.80319861     0.05700
C592        C  0.45954838  0.41448859  0.52658221    -0.08100
Cl593      Cl  0.46113877  0.48438226  0.92732821    -0.51100
C594        C  0.35157157  0.46097749  0.51518707     0.41400
H595        H  0.60299619  0.55202239  0.95442249     0.05600
N596        N  0.41815748  0.37306719  0.98289380    -0.47800
C597        C  0.04532517  0.59657274  0.84552909     0.41300
N598        N  0.99991774  0.54149454  0.85937989     0.00200
C599        C  0.89064645  0.48188318  0.52607464    -0.07700
H600        H  0.03279940  0.53788878  0.55124368     0.05700
C601        C  0.02900517  0.43270801  0.97143779    -0.08100
Co602      Co  0.95916769  0.54019393  0.93197332     0.74200
N603        N  0.99988311  0.53265360  0.00027209    -0.27200
Co604      Co  0.95932775  0.47616375  0.99798377     0.74100
C605        C  0.04611749  0.45152426  0.50830420     0.41400
N606        N  0.00075023  0.44564990  0.87861211    -0.00200
N607        N  0.00059392  0.46100666  0.99430763    -0.00100
N608        N  0.89055210  0.52333204  0.98255348    -0.48100
H609        H  0.03463377  0.62202970  0.90077430     0.05700
N610        N  0.00052858  0.55723605  0.97503555     0.00200
N611        N  0.91851517  0.41966616  0.99432656    -0.00100
C612        C  0.87315133  0.36456503  0.50819970     0.41500
N613        N  0.99981969  0.46950880  0.85347153    -0.26700
C614        C  0.89056356  0.52971640  0.88233586    -0.07600
N615        N  0.02611909  0.56065623  0.83292920    -0.47800
N616        N  0.89214669  0.40054200  0.52061486    -0.48000
C617        C  0.87324339  0.51092527  0.84557602     0.41300
N618        N  0.91782071  0.51579140  0.97511697     0.00200
N619        N  0.91848691  0.42836943  0.85375877    -0.26700
N620        N  0.00022515  0.56271154  0.88843388    -0.27200
N621        N  0.91807527  0.40384687  0.87894653    -0.00200
H622        H  0.88557096  0.42286046  0.80269445     0.05700
H623        H  0.88429395  0.33902692  0.95326453     0.05700
N624        N  0.91837123  0.49166085  0.00015597    -0.27200
N625        N  0.00092586  0.44001443  0.96534263    -0.26900
N626        N  0.91787164  0.50021023  0.85979365     0.00200
C627        C  0.04544100  0.59005864  0.51478053     0.41600
C628        C  0.02724889  0.47923427  0.82724575    -0.08100
N629        N  0.91853818  0.39840113  0.96549954    -0.26900
H630        H  0.03548382  0.41518702  0.95321177     0.05700
N631        N  0.02746281  0.59212166  0.98268522    -0.48100
H632        H  0.03278419  0.49792079  0.80279476     0.05700
C633        C  0.87328920  0.37079545  0.83914857     0.41400
C634        C  0.02819909  0.59812526  0.88242207    -0.07600
Co635      Co  0.95898215  0.48495225  0.85588004     0.73800
N636        N  0.02809199  0.43828792  0.87097714    -0.47800
C637        C  0.87216188  0.50278225  0.51427539     0.41700
N638        N  0.89184932  0.49349324  0.83326970    -0.47800
Co639      Co  0.95960584  0.42111061  0.92192839     0.73900
C640        C  0.89061517  0.36294538  0.97154360    -0.08100
C641        C  0.02714359  0.55073649  0.52659704    -0.07700
N642        N  0.91802943  0.52160272  0.88858539    -0.27200
N643        N  0.02681126  0.46818223  0.52076281    -0.48000
H644        H  0.88482143  0.46304937  0.55044755     0.05700
C645        C  0.89130547  0.41012781  0.82739329    -0.08100
Cl646      Cl  0.95926548  0.48059125  0.92693192    -0.51100
C647        C  0.04600191  0.45865114  0.83899872     0.41400
H648        H  0.88468047  0.54775959  0.90040499     0.05600
N649        N  0.89132828  0.36887100  0.87125985    -0.47800
C650        C  0.48627326  0.89533939  0.84591337     0.41300
N651        N  0.47675293  0.94083566  0.85968594     0.00200
C652        C  0.52812459  0.04984132  0.52671281    -0.07700
H653        H  0.44028811  0.90867314  0.55161974     0.05700
C654        C  0.33963500  0.91390822  0.97169774    -0.08100
Co655      Co  0.51668945  0.98156936  0.93211563     0.74200
N656        N  0.46811222  0.94129997  0.00053081    -0.27200
Co657      Co  0.45301024  0.98246897  0.99822821     0.74100
C658        C  0.34111499  0.89672299  0.50857928     0.41400
N659        N  0.38063822  0.94158593  0.87898711    -0.00200
N660        N  0.39631984  0.94194302  0.99470238    -0.00100
N661        N  0.56927049  0.04947218  0.98287778    -0.48100
H662        H  0.52226057  0.90578964  0.90117265     0.05700
N663        N  0.49194758  0.94037076  0.97531495     0.00200
N664        N  0.43816754  0.02388957  0.99443044    -0.00100
C665        C  0.42850132  0.06924028  0.50838178     0.41500
N666        N  0.40517938  0.94212383  0.85370392    -0.26700
C667        C  0.57535071  0.05018227  0.88228900    -0.07600
N668        N  0.46977887  0.91471798  0.83316584    -0.47800
N669        N  0.44534552  0.05012094  0.52085044    -0.48000
C670        C  0.57393572  0.06763929  0.84553919     0.41300
N671        N  0.53420554  0.02292172  0.97519372     0.00200
N672        N  0.44661385  0.02344166  0.85379599    -0.26700
N673        N  0.49756599  0.94038265  0.88877274    -0.27200
N674        N  0.42263482  0.02426179  0.87890397    -0.00200
H675        H  0.47452075  0.05610703  0.80278047     0.05700
H676        H  0.39190991  0.05833868  0.95346379     0.05700
N677        N  0.50974730  0.02266191  0.00039388    -0.27200
N678        N  0.37514446  0.94180611  0.96567977    -0.26900
N679        N  0.51852454  0.02287821  0.85971883     0.00200
C680        C  0.47951865  0.89547683  0.51520515     0.41600
C681        C  0.38693845  0.91513199  0.82718243    -0.08100
N682        N  0.41700223  0.02407299  0.96556718    -0.26900
H683        H  0.31571445  0.90752292  0.95337089     0.05700
N684        N  0.49964760  0.91330872  0.98309234    -0.48100
H685        H  0.39969118  0.90946177  0.80244027     0.05700
C686        C  0.43507693  0.06919048  0.83894902     0.41400
C687        C  0.50480075  0.91228012  0.88285966    -0.07600
Co688      Co  0.46185728  0.98232331  0.85603007     0.73800
N689        N  0.34563745  0.91487800  0.87125333    -0.47800
C690        C  0.56750385  0.06763270  0.51496406     0.41700
N691        N  0.53786439  0.04901060  0.83328863    -0.47800
Co692      Co  0.39798970  0.98292677  0.92212729     0.73900
C693        C  0.40956725  0.05201650  0.97165070    -0.08100
C694        C  0.45869214  0.91404173  0.52692300    -0.07700
N695        N  0.53971489  0.02265355  0.88852866    -0.27200
N696        N  0.37706497  0.91578267  0.52113040    -0.48000
H697        H  0.51541011  0.05569711  0.55135365     0.05700
C698        C  0.45602369  0.05069228  0.82740142    -0.08100
Cl699      Cl  0.45738040  0.98232626  0.92712658    -0.51100
C700        C  0.34760262  0.89705526  0.83897424     0.41400
H701        H  0.59926578  0.05618585  0.90044793     0.05600
N702        N  0.41487546  0.05130189  0.87104557    -0.47800
C703        C  0.41869925  0.27650574  0.53640486    -0.14500
C704        C  0.43194080  0.28041067  0.57488690     0.07600
C705        C  0.44741163  0.31564370  0.59318945    -0.14500
C706        C  0.44986457  0.34644494  0.57342171    -0.14500
C707        C  0.43639977  0.34255244  0.53512254     0.07600
C708        C  0.42061883  0.30729786  0.51678911    -0.14500
H709        H  0.40654778  0.24961289  0.52163534     0.11600
H710        H  0.45806679  0.31956913  0.62272493     0.11600
H711        H  0.46192970  0.37316999  0.58843965     0.11600
H712        H  0.41004833  0.30362601  0.98723472     0.11600
C713        C  0.43972228  0.13542872  0.59064941    -0.14500
C714        C  0.42757679  0.15847378  0.57318936     0.07600
C715        C  0.41548056  0.15177401  0.53414759    -0.14500
C716        C  0.41543929  0.12257743  0.51306969    -0.14500
C717        C  0.42798460  0.09987193  0.53045860     0.07600
C718        C  0.44019912  0.10662582  0.56940067    -0.14500
H719        H  0.44942795  0.14000645  0.62057800     0.11600
H720        H  0.40588134  0.16900823  0.51990601     0.11600
H721        H  0.40601588  0.11812098  0.98306227     0.11600
H722        H  0.44997902  0.08950034  0.58355510     0.11600
C723        C  0.41809934  0.27262797  0.81951381    -0.14500
C724        C  0.42944996  0.27782484  0.78020282     0.07600
C725        C  0.44092898  0.31285559  0.76264350    -0.14500
C726        C  0.44153330  0.34214981  0.78405898    -0.14500
C727        C  0.43009093  0.33687496  0.82328658     0.07600
C728        C  0.41816426  0.30177488  0.84075298    -0.14500
H729        H  0.40898490  0.24593496  0.83386957     0.11600
H730        H  0.44999950  0.31784619  0.73249910     0.11600
H731        H  0.45081319  0.36892926  0.76981624     0.11600
H732        H  0.40934592  0.29694282  0.87096325     0.11600
C733        C  0.41979781  0.15104335  0.81739552    -0.14500
C734        C  0.43131010  0.15880208  0.77822553     0.07600
C735        C  0.44372627  0.13663815  0.75927684    -0.14500
C736        C  0.44506574  0.10767300  0.77913875    -0.14500
C737        C  0.43349676  0.09985665  0.81820558     0.07600
C738        C  0.42056104  0.12157487  0.83710684    -0.14500
H739        H  0.40993450  0.16754880  0.83271949     0.11600
H740        H  0.45287460  0.14194378  0.72916511     0.11600
H741        H  0.45484029  0.09119221  0.76366688     0.11600
H742        H  0.41150712  0.11607697  0.86724267     0.11600
C743        C  0.62988989  0.49995259  0.75969109    -0.14500
C744        C  0.66429632  0.51180244  0.77880414     0.07600
C745        C  0.66785962  0.52271013  0.81816958    -0.14500
C746        C  0.63756674  0.52185378  0.83791486    -0.14500
C747        C  0.60307978  0.50943428  0.81881436     0.07600
C748        C  0.59955222  0.49853310  0.77955840    -0.14500
H749        H  0.62617931  0.49127587  0.72943325     0.11600
H750        H  0.69408957  0.53210329  0.83363441     0.11600
H751        H  0.64091650  0.53037895  0.86821290     0.11600
H752        H  0.57343052  0.48919952  0.76394640     0.11600
C753        C  0.79264998  0.52677713  0.81883933    -0.14500
C754        C  0.78489045  0.51313698  0.78036843     0.07600
C755        C  0.80669333  0.49920938  0.76350880    -0.14500
C756        C  0.83526090  0.49839212  0.78488145    -0.14500
C757        C  0.84300229  0.51202228  0.82331606     0.07600
C758        C  0.82160870  0.52645771  0.84002648    -0.14500
H759        H  0.77639799  0.53782207  0.83254824     0.11600
H760        H  0.80127579  0.48835255  0.73400459     0.11600
H761        H  0.85138460  0.48717117  0.77123399     0.11600
H762        H  0.82686264  0.53705701  0.86960758     0.11600
C763        C  0.67194214  0.52578984  0.53455114    -0.14500
C764        C  0.66715822  0.51551206  0.57416137     0.07600
C765        C  0.63290663  0.50618731  0.59245360    -0.14500
C766        C  0.60385413  0.50641000  0.57139762    -0.14500
C767        C  0.60864941  0.51653746  0.53180774     0.07600
C768        C  0.64306121  0.52656622  0.51366184    -0.14500
H769        H  0.69804440  0.53326652  0.51964465     0.11600
H770        H  0.62826031  0.49805105  0.62287565     0.11600
H771        H  0.57760134  0.49866480  0.58613540     0.11600
H772        H  0.64744792  0.53433114  0.98314596     0.11600
C773        C  0.80379864  0.49358602  0.59317103    -0.14500
C774        C  0.78347806  0.50845027  0.57486292     0.07600
C775        C  0.79227746  0.52114264  0.53613313    -0.14500
C776        C  0.82124498  0.51944828  0.51635124    -0.14500
C777        C  0.84139312  0.50443752  0.53474819     0.07600
C778        C  0.83224590  0.49134871  0.57323847    -0.14500
H779        H  0.79752130  0.48335493  0.62288403     0.11600
H780        H  0.77711501  0.53280999  0.52130781     0.11600
H781        H  0.82775020  0.52966723  0.48664624     0.11600
H782        H  0.84739481  0.47984091  0.58831458     0.11600
C783        C  0.62735446  0.13444959  0.59436780    -0.14500
C784        C  0.66188317  0.15638378  0.57521136     0.07600
C785        C  0.66531989  0.14860175  0.53596225    -0.14500
C786        C  0.63475574  0.11935352  0.51636983    -0.14500
C787        C  0.60014715  0.09793635  0.53551047     0.07600
C788        C  0.59676593  0.10572461  0.57465485    -0.14500
H789        H  0.62374185  0.13977134  0.62454025     0.11600
H790        H  0.69164330  0.16495277  0.52047865     0.11600
H791        H  0.63799856  0.11383038  0.98615351     0.11600
H792        H  0.57055523  0.08942986  0.59029456     0.11600
C793        C  0.79075593  0.26888563  0.53454433    -0.14500
C794        C  0.78338570  0.27479560  0.57319165     0.07600
C795        C  0.80587277  0.31035959  0.59012908    -0.14500
C796        C  0.83480220  0.33947034  0.56877968    -0.14500
C797        C  0.84228943  0.33350189  0.53025880     0.07600
C798        C  0.82010056  0.29789057  0.51337164    -0.14500
H799        H  0.77396173  0.24174458  0.52071425     0.11600
H800        H  0.80076270  0.31588749  0.61972146     0.11600
H801        H  0.85146722  0.36666218  0.58255746     0.11600
H802        H  0.82510967  0.29250368  0.98370610     0.11600
C803        C  0.62842180  0.13496818  0.76361756    -0.14500
C804        C  0.66414560  0.15707149  0.78042001     0.07600
C805        C  0.67008847  0.14934993  0.81891321    -0.14500
C806        C  0.64097586  0.12007538  0.84007393    -0.14500
C807        C  0.60518612  0.09829732  0.82336498     0.07600
C808        C  0.59919799  0.10610155  0.78496843    -0.14500
H809        H  0.62287732  0.14031308  0.73412906     0.11600
H810        H  0.69735414  0.16580547  0.83263196     0.11600
H811        H  0.64641911  0.11482510  0.86961945     0.11600
H812        H  0.57188985  0.08975213  0.77129961     0.11600
C813        C  0.81948054  0.30463675  0.83817731    -0.14500
C814        C  0.84302377  0.33832588  0.81842393     0.07600
C815        C  0.83729484  0.34105855  0.77852550    -0.14500
C816        C  0.80835886  0.31074384  0.75867516    -0.14500
C817        C  0.78412918  0.27720092  0.77844816     0.07600
C818        C  0.79002165  0.27440184  0.81843328    -0.14500
H819        H  0.82342732  0.30195728  0.86899108     0.11600
H820        H  0.85534940  0.36657474  0.76248289     0.11600
H821        H  0.80466153  0.31386637  0.72790821     0.11600
H822        H  0.77192730  0.24887097  0.83445598     0.11600
C823        C  0.24975581  0.44282409  0.82126352    -0.14500
C824        C  0.25372395  0.45100152  0.78109635     0.07600
C825        C  0.28759153  0.45932775  0.76258148    -0.14500
C826        C  0.31705136  0.46018061  0.78385029    -0.14500
C827        C  0.31307406  0.45211371  0.82392179     0.07600
C828        C  0.27906177  0.44310040  0.84240664    -0.14500
H829        H  0.22398990  0.43619583  0.83640929     0.11600
H830        H  0.29162935  0.46582775  0.73174934     0.11600
H831        H  0.34296162  0.46704108  0.76886301     0.11600
H832        H  0.27532872  0.43691677  0.87330997     0.11600
C833        C  0.12828056  0.44407275  0.81834973    -0.14500
C834        C  0.13609361  0.45542860  0.77916318     0.07600
C835        C  0.11422895  0.46809900  0.76006217    -0.14500
C836        C  0.08518015  0.46944325  0.77970148    -0.14500
C837        C  0.07708137  0.45767115  0.81866732     0.07600
C838        C  0.09875635  0.44487171  0.83784138    -0.14500
H839        H  0.14464995  0.43411941  0.83378852     0.11600
H840        H  0.11968637  0.47721486  0.72994984     0.11600
H841        H  0.06875345  0.47919350  0.76408761     0.11600
H842        H  0.09305643  0.43577270  0.86795067     0.11600
C843        C  0.29070200  0.46420561  0.59579351    -0.14500
C844        C  0.25724752  0.45493323  0.57582879     0.07600
C845        C  0.25507939  0.44753399  0.53557061    -0.14500
C846        C  0.28567161  0.44912184  0.51581750    -0.14500
C847        C  0.31910661  0.45880428  0.53583780     0.07600
C848        C  0.32140752  0.46640578  0.57592426    -0.14500
H849        H  0.29335652  0.47012113  0.62676247     0.11600
H850        H  0.22969658  0.44030538  0.51935410     0.11600
H851        H  0.28339664  0.44328476  0.48482966     0.11600
H852        H  0.34678181  0.47357221  0.59211205     0.11600
C853        C  0.12914942  0.43928300  0.53459801    -0.14500
C854        C  0.13524172  0.45076517  0.57386693     0.07600
C855        C  0.11157350  0.46216706  0.59130457    -0.14500
C856        C  0.08282711  0.46258647  0.56981017    -0.14500
C857        C  0.07670098  0.45101157  0.53062833     0.09400
C858        C  0.09999805  0.43915502  0.51327618    -0.14500
H859        H  0.14683772  0.43022945  0.52034567     0.11600
H860        H  0.11562394  0.47134787  0.62140575     0.11600
H861        H  0.06523686  0.47181536  0.58396986     0.11600
H862        H  0.09603900  0.43022507  0.98310740     0.11600
C863        C  0.12745244  0.68708528  0.53557471    -0.14500
C864        C  0.13386289  0.68427333  0.57539992     0.07600
C865        C  0.11080250  0.65025074  0.59497702    -0.14500
C866        C  0.08226012  0.61959506  0.57511667    -0.14500
C867        C  0.07579238  0.62248989  0.53543814     0.07600
C868        C  0.09841825  0.65651963  0.51584773    -0.14500
H869        H  0.14469077  0.71296048  0.51970485     0.11600
H870        H  0.11502598  0.64711268  0.62560635     0.11600
H871        H  0.06497820  0.59377825  0.59103158     0.11600
H872        H  0.09393768  0.65932026  0.48519965     0.11600
C873        C  0.24667001  0.81181826  0.53359080    -0.14500
C874        C  0.25141608  0.80661327  0.57332614     0.07600
C875        C  0.28573219  0.83155983  0.59142644    -0.14500
C876        C  0.31478005  0.86067920  0.57020744    -0.14500
C877        C  0.30997650  0.86591559  0.53059857     0.07600
C878        C  0.27558081  0.84137074  0.51251049    -0.14500
H879        H  0.22054305  0.79313357  0.51877865     0.11600
H880        H  0.29039618  0.82828855  0.62189756     0.11600
H881        H  0.34101399  0.87926145  0.58491121     0.11600
H882        H  0.27119514  0.84464049  0.98196653     0.11600
C883        C  0.12818136  0.69209104  0.81994518    -0.14500
C884        C  0.13438665  0.68704599  0.78061247     0.07600
C885        C  0.11092025  0.65206055  0.76292354    -0.14500
C886        C  0.08220195  0.62266664  0.78421161    -0.14500
C887        C  0.07593365  0.62780655  0.82343146     0.07600
C888        C  0.09907582  0.66283507  0.84106437    -0.14500
H889        H  0.14569993  0.71875312  0.83439099     0.11600
H890        H  0.11505101  0.64719942  0.73275462     0.11600
H891        H  0.06472427  0.59593857  0.76985947     0.11600
H892        H  0.09500392  0.66755253  0.87128269     0.11600
C893        C  0.25198926  0.81239840  0.81885460    -0.14500
C894        C  0.25450516  0.80700036  0.77867565     0.07600
C895        C  0.28764372  0.83191544  0.75865252    -0.14500
C896        C  0.31777439  0.86117318  0.77838184    -0.14500
C897        C  0.31525682  0.86650590  0.81842005     0.07600
C898        C  0.28202633  0.84216930  0.83848773    -0.14500
H899        H  0.22679456  0.79374133  0.83509851     0.11600
H900        H  0.29055295  0.82860141  0.72774522     0.11600
H901        H  0.34296925  0.87981435  0.76214332     0.11600
H902        H  0.27957066  0.84576040  0.86943527     0.11600
C903        C  0.49923627  0.66031074  0.83697506    -0.14500
C904        C  0.48509652  0.62533874  0.81844323     0.07600
C905        C  0.47216807  0.62116846  0.77986948    -0.14500
C906        C  0.47343198  0.65143650  0.76008670    -0.14500
C907        C  0.48715835  0.68635966  0.77866004     0.07600
C908        C  0.49994891  0.69052045  0.81735379    -0.14500
H909        H  0.50933655  0.66416307  0.86673352     0.11600
H910        H  0.46140256  0.59463819  0.76469289     0.11600
H911        H  0.46323966  0.64733436  0.73035243     0.11600
H912        H  0.51082183  0.71719788  0.83232278     0.11600
C913        C  0.47922348  0.86088327  0.78368715    -0.14500
C914        C  0.48737149  0.86506239  0.82374466     0.07600
C915        C  0.49649539  0.84016571  0.84220243    -0.14500
C916        C  0.49701232  0.81128916  0.82104148    -0.14500
C917        C  0.48892260  0.80707868  0.78086987     0.07600
C918        C  0.48029032  0.83239734  0.76239225    -0.14500
H919        H  0.47225208  0.87983235  0.76871560     0.11600
H920        H  0.50271493  0.84265224  0.87309477     0.11600
H921        H  0.50383697  0.79231473  0.83617514     0.11600
H922        H  0.47382750  0.82992010  0.73155238     0.11600
C923        C  0.48204942  0.65605844  0.59162577    -0.14500
C924        C  0.49074134  0.69011796  0.57340371     0.07600
C925        C  0.49982194  0.69461546  0.53343940    -0.14500
C926        C  0.50024006  0.66569259  0.51223603    -0.14500
C927        C  0.49102796  0.63154641  0.53045180     0.07600
C928        C  0.48189950  0.62699360  0.57029399    -0.14500
H929        H  0.47481431  0.65160099  0.62228398     0.11600
H930        H  0.50670763  0.72053491  0.51852408     0.11600
H931        H  0.50718301  0.66984842  0.48150594     0.11600
H932        H  0.47480466  0.60095357  0.58508250     0.11600
C933        C  0.49668497  0.81499487  0.53655359    -0.14500
C934        C  0.48563088  0.80730743  0.57582819     0.07600
C935        C  0.47257336  0.82887519  0.59490621    -0.14500
C936        C  0.47027575  0.85730434  0.57504981    -0.14500
C937        C  0.48151627  0.86510509  0.53590548     0.07600
C938        C  0.49494278  0.84389157  0.51685983    -0.14500
H939        H  0.50697115  0.79889883  0.52113153     0.11600
H940        H  0.46371652  0.82353877  0.62510452     0.11600
H941        H  0.46012047  0.87343301  0.59058041     0.11600
H942        H  0.50373819  0.84941175  0.98664763     0.11600
loop_ 
_geom_bond_atom_site_label_1 
_geom_bond_atom_site_label_2 
_geom_bond_distance 
_geom_bond_site_symmetry_2 
_ccdc_geom_bond_type 
C1            N2   1.358       .  A
C1            N6   1.361       .  A
C1          C453   1.482       .  S
N2            C3   1.358       .  A
C3            N4   1.358       .  A
C3          C463   1.476       .  S
N4            C5   1.356       .  A
C5            N6   1.359       .  A
C5            C9   1.469       .  S
C7            N8   1.358       .  A
C7           N12   1.358       .  A
C7          C436   1.476       .  S
N8            C9   1.356       .  A
C9           N10   1.359       .  A
N10          C11   1.361       .  A
C11          N12   1.358       .  A
C11         C446   1.483       .  S
C13          N14   1.358       .  A
C13          N18   1.359       .  A
C13         C423   1.480       .  S
N14          C15   1.359       .  A
C15          N16   1.361       .  A
C15         C413   1.482       .  S
N16          C17   1.360       .  A
C17          N18   1.356       .  A
C17          C21   1.471       .  S
C19          N20   1.361       .  A
C19          N24   1.359       .  A
C19         C403   1.483       .  S
N20          C21   1.360       .  A
C21          N22   1.356       .  A
N22          C23   1.358       .  A
C23          N24   1.358       .  A
C23         C393   1.479       .  S
C25          N26   1.361       .  A
C25          N30   1.358       .  A
C25         C383   1.482       .  S
N26          C27   1.360       .  A
C27          N28   1.356       .  A
C27          C35   1.470       .  S
N28          C29   1.358       .  A
C29          N30   1.358       .  A
C29         C373   1.479       .  S
C31          N32   1.358       .  A
C31          N36   1.358       .  A
C31         C363   1.475       .  S
N32          C33   1.358       .  A
C33          N34   1.361       .  A
C33         C353   1.482       .  S
N34          C35   1.360       .  A
C35          N36   1.355       .  A
C37          N38   1.359       .  A
C37          N42   1.358       .  A
C37         C346   1.480       .  S
N38          C39   1.359       .  A
C39          N40   1.361       .  A
C39         C333   1.483       .  S
N40          C41   1.360       .  A
C41          N42   1.356       .  A
C41          C45   1.472       .  S
C43          N44   1.361       .  A
C43          N48   1.359       .  A
C43         C323   1.482       .  S
N44          C45   1.360       .  A
C45          N46   1.356       .  A
N46          C47   1.358       .  A
C47          N48   1.358       .  A
C47         C313   1.478       .  S
C49          N50   1.360       .  A
C49          N54   1.359       .  A
C49         C293   1.481       .  S
N50          C51   1.359       .  A
C51          N52   1.356       .  A
C51          C57   1.470       .  S
N52          C53   1.359       .  A
C53          N54   1.358       .  A
C53         C303   1.478       .  S
C55          N56   1.358       .  A
C55          N60   1.358       .  A
C55         C273   1.478       .  S
N56          C57   1.356       .  A
C57          N58   1.359       .  A
N58          C59   1.360       .  A
C59          N60   1.359       .  A
C59         C283   1.479       .  S
C61          N62   1.358       .  A
C61          N66   1.358       .  A
C61         C263   1.479       .  S
N62          C63   1.356       .  A
C63          N64   1.360       .  A
C63          C71   1.471       .  S
N64          C65   1.361       .  A
C65          N66   1.359       .  A
C65         C253   1.483       .  S
C67          N68   1.359       .  A
C67          N72   1.361       .  A
C67         C243   1.481       .  S
N68          C69   1.358       .  A
C69          N70   1.358       .  A
C69         C233   1.476       .  S
N70          C71   1.356       .  A
C71          N72   1.359       .  A
C73          N91   1.348       .  A
C73         C456   1.476       .  S
C73         C581   1.464   1_554  S
N74          N96   1.320       .  A
N74         N562   1.322       .  A
N74        Co111   2.078       .  S
C75         N100   1.336       .  A
C75         C113   1.457       .  S
C75         H120   1.081       .  S
H76         C117   1.081       .  S
C77         N101   1.342       .  A
C77          C81   1.462       .  S
C77         H106   1.081       .  S
Co78         N96   2.090       .  S
Co78         N86   2.090       .  S
Co78        N118   2.091       .  S
Co78         N94   2.091       .  S
Co78       Cl122   2.454       .  S
N79         C117   1.336       .  A
N79          N86   1.320       .  A
N79         Co80   2.069       .  S
Co80         N83   2.080       .  S
Co80        N100   2.075       .  S
Co80         N87   2.076       .  S
Co80       Cl122   2.445       .  S
C81         N119   1.349       .  A
C81         C356   1.476       .  S
N82          N89   1.320       .  A
N82         N112   1.325       .  A
N82        Co115   2.089       .  S
N83         N101   1.319       .  A
N83         N119   1.323       .  A
N84         C113   1.352       .  A
N84          N94   1.326       .  A
H85         C110   1.081       .  S
N86         N107   1.326       .  A
N87         N105   1.319       .  A
N87          N92   1.323       .  A
C88          N92   1.348       .  A
C88         C116   1.465       .  S
C88         C256   1.479       .  S
N89         C575   1.337       .  A
N89        Co111   2.071       .  S
C90         N118   1.343       .  A
C90         C564   1.464       .  S
C90         H124   1.081       .  S
N91         N545   1.322   1_554  A
C93         N114   1.348       .  A
C93         C296   1.476       .  S
C93         C561   1.464   1_554  S
N94         N100   1.320       .  A
N95         C592   1.337       .  A
N95          N97   1.320       .  A
N95        Co111   2.074       .  S
N96         C110   1.343       .  A
N97         N125   1.325       .  A
N97        Co115   2.086       .  S
H98         C121   1.081       .  S
H99         C116   1.081       .  S
N101       Co115   2.085       .  S
N102        N118   1.319       .  A
N102        N585   1.323       .  A
N102       Co111   2.075       .  S
C103        N107   1.352       .  A
C103        C117   1.456       .  S
C103        C433   1.472       .  S
C104        N560   1.337       .  A
C104        C123   1.456       .  S
C104        H108   1.081       .  S
N105        C116   1.343       .  A
N105       Co115   2.092       .  S
C109        N596   1.351   1_554  A
C109        C121   1.458       .  S
C109        C236   1.473       .  S
C110        C544   1.464       .  S
Co111      Cl122   2.446       .  S
N112        C594   1.351       .  A
C113        C276   1.474       .  S
N114        N573   1.323   1_554  A
Co115      Cl122   2.453       .  S
C121        N566   1.337       .  A
C123        N583   1.351   1_554  A
C123        C376   1.471       .  S
N125        C580   1.351       .  A
C126        N144   1.349       .  A
C126        C163   1.464       .  S
C126        C416   1.478       .  S
N127        N144   1.323   1_655  A
N127        N149   1.319   1_655  A
N127       Co164   2.079       .  S
C128        N624   1.337       .  A
C128        C166   1.458       .  S
C128        H173   1.081       .  S
H129        C170   1.081       .  S
C130        N154   1.344       .  A
C130        C605   1.465       .  S
C130        H159   1.081       .  S
Co131       N149   2.088   1_655  S
Co131       N139   2.089   1_655  S
Co131       N171   2.087       .  S
Co131       N147   2.090       .  S
Co131      Cl175   2.454       .  S
N132        C641   1.337   1_655  A
N132        N139   1.320   1_655  A
N132       Co133   2.071       .  S
Co133       N136   2.079   1_655  S
Co133       N153   2.074       .  S
Co133       N140   2.076       .  S
Co133      Cl175   2.444       .  S
C134        N172   1.348       .  A
C134        C386   1.479       .  S
C134        C601   1.465   1_554  S
N135        N142   1.320   1_455  A
N135        N165   1.325       .  A
N135       Co168   2.090   1_455  S
N136        N154   1.319       .  A
N136        N643   1.323       .  A
N137        C637   1.352       .  A
N137        N147   1.326       .  A
H138        C163   1.081       .  S
N139        N160   1.325       .  A
N140        N158   1.319       .  A
N140        N616   1.322       .  A
C141        N145   1.348       .  A
C141        C326   1.478       .  S
C141        C640   1.465   1_554  S
N142        C157   1.336   1_655  A
N142       Co164   2.068       .  S
C143        N171   1.342       .  A
C143        C146   1.463       .  S
C143        H177   1.081       .  S
N145        N611   1.322   1_554  A
C146        N167   1.348       .  A
C146        C286   1.476       .  S
N147        N153   1.320       .  A
N148        C174   1.337       .  A
N148        N150   1.320       .  A
N148       Co164   2.073       .  S
N149        C163   1.343       .  A
N150        N178   1.326       .  A
N150       Co168   2.091       .  S
H151        C174   1.081       .  S
H152        C169   1.081       .  S
N153        C599   1.337       .  A
N154       Co168   2.092   1_455  S
N155        N167   1.323       .  A
N155        N171   1.319       .  A
N155       Co164   2.076       .  S
C156        N631   1.351   1_554  A
C156        C170   1.456       .  S
C156        C396   1.472       .  S
C157        C176   1.455       .  S
C157        H161   1.081       .  S
N158        C169   1.343       .  A
N158       Co168   2.090       .  S
N160        C627   1.351       .  A
C162        N178   1.351       .  A
C162        C174   1.456       .  S
C162        C343   1.472       .  S
Co164      Cl175   2.444       .  S
N165        C176   1.352       .  A
C166        N608   1.352   1_554  A
C166        C306   1.475       .  S
Co168      Cl175   2.454       .  S
C169        C612   1.465       .  S
C170        N603   1.337   1_455  A
N172        N607   1.323   1_554  A
C176        C366   1.471       .  S
C179        N197   1.349       .  A
C179        C216   1.462       .  S
C179        C443   1.476       .  S
N180        N197   1.323       .  A
N180        N202   1.319       .  A
N180       Co217   2.081       .  S
C181        N677   1.337       .  A
C181        C219   1.457       .  S
C181        H226   1.081       .  S
H182        C223   1.081       .  S
C183        N207   1.344       .  A
C183        C658   1.464       .  S
C183        H212   1.081       .  S
Co184       N202   2.087       .  S
Co184       N192   2.090       .  S
Co184       N224   2.092   1_565  S
Co184       N200   2.088   1_565  S
Co184      Cl228   2.454       .  S
N185        C694   1.337       .  A
N185        N192   1.320       .  A
N185       Co186   2.072       .  S
Co186       N189   2.078       .  S
Co186       N206   2.074   1_565  S
Co186       N193   2.077   1_565  S
Co186      Cl228   2.446       .  S
C187        N225   1.348       .  A
C187        C406   1.478       .  S
C187        C654   1.464   1_554  S
N188        N195   1.320       .  A
N188        N218   1.326       .  A
N188       Co221   2.090       .  S
N189        N207   1.320       .  A
N189        N696   1.323       .  A
N190        C690   1.351       .  A
N190        N200   1.326       .  A
H191        C216   1.081       .  S
N192        N213   1.325       .  A
N193        N211   1.319       .  A
N193        N669   1.323       .  A
C194        N198   1.349       .  A
C194        C246   1.477       .  S
C194        C693   1.463   1_554  S
N195        C210   1.336       .  A
N195       Co217   2.072       .  S
C196        N224   1.344       .  A
C196        C199   1.465       .  S
C196        H230   1.081       .  S
N198        N664   1.323   1_554  A
C199        N220   1.348       .  A
C199        C336   1.480       .  S
N200        N206   1.320       .  A
N201        C227   1.337       .  A
N201        N203   1.320       .  A
N201       Co217   2.074   1_545  S
N202        C216   1.342       .  A
N203        N231   1.326       .  A
N203       Co221   2.093   1_545  S
H204        C227   1.081       .  S
H205        C222   1.081       .  S
N206        C652   1.337       .  A
N207       Co221   2.092       .  S
N208        N220   1.323       .  A
N208        N224   1.319       .  A
N208       Co217   2.078   1_545  S
C209        N684   1.351   1_554  A
C209        C223   1.457       .  S
C209        C466   1.472       .  S
C210        C229   1.456       .  S
C210        H214   1.081       .  S
N211        C222   1.342       .  A
N211       Co221   2.089   1_545  S
N213        C680   1.351       .  A
C215        N231   1.352       .  A
C215        C227   1.457       .  S
C215        C266   1.475       .  S
Co217      Cl228   2.446       .  S
N218        C229   1.351       .  A
C219        N661   1.351   1_554  A
C219        C316   1.473       .  S
Co221      Cl228   2.454       .  S
C222        C665   1.463       .  S
C223        N656   1.337       .  A
N225        N660   1.323   1_554  A
C229        C426   1.471       .  S
C232        H238   1.083       .  S
C232        C233   1.406       .  A
C232        C237   1.399       .  A
C233        C234   1.403       .  A
C234        H239   1.083       .  S
C234        C235   1.393       .  A
C235        H240   1.082       .  S
C235        C236   1.403       .  A
C236        C237   1.404       .  A
C237        H712   1.083   1_554  S
H241        C708   1.083       .  S
C242        H248   1.083       .  S
C242        C243   1.405       .  A
C242        C247   1.397       .  A
C243        C244   1.407       .  A
C244        H249   1.083       .  S
C244        C245   1.399       .  A
C245        H721   1.083   1_554  S
C245        C246   1.403       .  A
C246        C247   1.405       .  A
C247        H251   1.083       .  S
H250        C716   1.083       .  S
C252        H258   1.083       .  S
C252        C253   1.407       .  A
C252        C257   1.399       .  A
C253        C254   1.405       .  A
C254        H259   1.083       .  S
C254        C255   1.398       .  A
C255        H260   1.083       .  S
C255        C256   1.406       .  A
C256        C257   1.403       .  A
C257        H261   1.083       .  S
C262        H268   1.083       .  S
C262        C263   1.407       .  A
C262        C267   1.400       .  A
C263        C264   1.404       .  A
C264        H269   1.083       .  S
C264        C265   1.395       .  A
C265        H270   1.082       .  S
C265        C266   1.404       .  A
C266        C267   1.403       .  A
C267        H271   1.083       .  S
C272        H278   1.083       .  S
C272        C273   1.404       .  A
C272        C277   1.394       .  A
C273        C274   1.407       .  A
C274        H279   1.083       .  S
C274        C275   1.400       .  A
C275        H280   1.083       .  S
C275        C276   1.403       .  A
C276        C277   1.403       .  A
C277        H281   1.082       .  S
C282        H288   1.083       .  S
C282        C283   1.406       .  A
C282        C287   1.398       .  A
C283        C284   1.404       .  A
C284        H289   1.083       .  S
C284        C285   1.397       .  A
C285        H290   1.083       .  S
C285        C286   1.405       .  A
C286        C287   1.403       .  A
C287        H291   1.082       .  S
C292        H298   1.083       .  S
C292        C293   1.407       .  A
C292        C297   1.399       .  A
C293        C294   1.405       .  A
C294        H299   1.083       .  S
C294        C295   1.398       .  A
C295        H300   1.083       .  S
C295        C296   1.405       .  A
C296        C297   1.402       .  A
C297        H772   1.083   1_554  S
H301        C768   1.083       .  S
C302        H308   1.083       .  S
C302        C303   1.404       .  A
C302        C307   1.394       .  A
C303        C304   1.406       .  A
C304        H309   1.083       .  S
C304        C305   1.400       .  A
C305        H310   1.083   1_554  S
C305        C306   1.404       .  A
C306        C307   1.404       .  A
C307        H311   1.082       .  S
C312        H318   1.083       .  S
C312        C313   1.404       .  A
C312        C317   1.393       .  A
C313        C314   1.407       .  A
C314        H319   1.083       .  S
C314        C315   1.400       .  A
C315        H791   1.083   1_554  S
C315        C316   1.403       .  A
C316        C317   1.403       .  A
C317        H321   1.082       .  S
H320        C786   1.083       .  S
C322        H328   1.083       .  S
C322        C323   1.407       .  A
C322        C327   1.400       .  A
C323        C324   1.404       .  A
C324        H329   1.083       .  S
C324        C325   1.397       .  A
C325        H330   1.083       .  S
C325        C326   1.405       .  A
C326        C327   1.403       .  A
C327        H802   1.082   1_554  S
H331        C798   1.082       .  S
C332        H338   1.083       .  S
C332        C333   1.404       .  A
C332        C337   1.398       .  A
C333        C334   1.407       .  A
C334        H339   1.083       .  S
C334        C335   1.400       .  A
C335        H340   1.082       .  S
C335        C336   1.403       .  A
C336        C337   1.406       .  A
C337        H341   1.083       .  S
C342        H348   1.083       .  S
C342        C343   1.403       .  A
C342        C347   1.400       .  A
C343        C344   1.403       .  A
C344        H349   1.082       .  S
C344        C345   1.394       .  A
C345        H350   1.083       .  S
C345        C346   1.405       .  A
C346        C347   1.407       .  A
C347        H351   1.083       .  S
C352        H358   1.083       .  S
C352        C353   1.408       .  A
C352        C357   1.399       .  A
C353        C354   1.405       .  A
C354        H359   1.083       .  S
C354        C355   1.397       .  A
C355        H360   1.083       .  S
C355        C356   1.404       .  A
C356        C357   1.403       .  A
C357        H361   1.083       .  S
C362        H368   1.083       .  S
C362        C363   1.406       .  A
C362        C367   1.398       .  A
C363        C364   1.404       .  A
C364        H369   1.083       .  S
C364        C365   1.393       .  A
C365        H370   1.082       .  S
C365        C366   1.403       .  A
C366        C367   1.402       .  A
C367        H371   1.083       .  S
C372        H378   1.083       .  S
C372        C373   1.405       .  A
C372        C377   1.394       .  A
C373        C374   1.407       .  A
C374        H379   1.083       .  S
C374        C375   1.398       .  A
C375        H380   1.083   1_554  S
C375        C376   1.402       .  A
C376        C377   1.403       .  A
C377        H381   1.083       .  S
C382        H388   1.083       .  S
C382        C383   1.408       .  A
C382        C387   1.400       .  A
C383        C384   1.405       .  A
C384        H389   1.083       .  S
C384        C385   1.398       .  A
C385        H390   1.083       .  S
C385        C386   1.406       .  A
C386        C387   1.403       .  A
C387        H862   1.083   1_554  S
H391        C858   1.083       .  S
C392        H398   1.083       .  S
C392        C393   1.407       .  A
C392        C397   1.398       .  A
C393        C394   1.405       .  A
C394        H399   1.083       .  S
C394        C395   1.394       .  A
C395        H400   1.082       .  S
C395        C396   1.403       .  A
C396        C397   1.402       .  A
C397        H401   1.083   1_554  S
C402        H408   1.083       .  S
C402        C403   1.408       .  A
C402        C407   1.400       .  A
C403        C404   1.405       .  A
C404        H409   1.083       .  S
C404        C405   1.397       .  A
C405        H410   1.083       .  S
C405        C406   1.405       .  A
C406        C407   1.403       .  A
C407        H882   1.083   1_554  S
H411        C878   1.083       .  S
C412        H418   1.083       .  S
C412        C413   1.407       .  A
C412        C417   1.399       .  A
C413        C414   1.405       .  A
C414        H419   1.083       .  S
C414        C415   1.398       .  A
C415        H420   1.083       .  S
C415        C416   1.405       .  A
C416        C417   1.403       .  A
C417        H421   1.083       .  S
C422        H428   1.083       .  S
C422        C423   1.408       .  A
C422        C427   1.399       .  A
C423        C424   1.405       .  A
C424        H429   1.083       .  S
C424        C425   1.394       .  A
C425        H430   1.083       .  S
C425        C426   1.403       .  A
C426        C427   1.402       .  A
C427        H431   1.083       .  S
C432        H438   1.083       .  S
C432        C433   1.403       .  A
C432        C437   1.398       .  A
C433        C434   1.404       .  A
C434        H439   1.082       .  S
C434        C435   1.394       .  A
C435        H440   1.083       .  S
C435        C436   1.404       .  A
C436        C437   1.406       .  A
C437        H441   1.083       .  S
C442        H448   1.083       .  S
C442        C443   1.404       .  A
C442        C447   1.398       .  A
C443        C444   1.403       .  A
C444        H449   1.083       .  S
C444        C445   1.399       .  A
C445        H450   1.083       .  S
C445        C446   1.408       .  A
C446        C447   1.405       .  A
C447        H451   1.083       .  S
C452        H458   1.083       .  S
C452        C453   1.405       .  A
C452        C457   1.397       .  A
C453        C454   1.408       .  A
C454        H459   1.083       .  S
C454        C455   1.399       .  A
C455        H460   1.083   1_554  S
C455        C456   1.403       .  A
C456        C457   1.404       .  A
C457        H461   1.083       .  S
C462        H468   1.083       .  S
C462        C463   1.406       .  A
C462        C467   1.397       .  A
C463        C464   1.404       .  A
C464        H469   1.083       .  S
C464        C465   1.394       .  A
C465        H470   1.082       .  S
C465        C466   1.404       .  A
C466        C467   1.403       .  A
C467        H942   1.083   1_554  S
H471        C938   1.083       .  S
C472        N473   1.358       .  A
C472        N477   1.361       .  A
C472        C924   1.482       .  S
N473        C474   1.358       .  A
C474        N475   1.358       .  A
C474        C934   1.476       .  S
N475        C476   1.356       .  A
C476        N477   1.359       .  A
C476        C480   1.469       .  S
C478        N479   1.358       .  A
C478        N483   1.358       .  A
C478        C907   1.476       .  S
N479        C480   1.356       .  A
C480        N481   1.359       .  A
N481        C482   1.361       .  A
C482        N483   1.358       .  A
C482        C917   1.483       .  S
C484        N485   1.358       .  A
C484        N489   1.359       .  A
C484        C894   1.480       .  S
N485        C486   1.359       .  A
C486        N487   1.361       .  A
C486        C884   1.482       .  S
N487        C488   1.360       .  A
C488        N489   1.356       .  A
C488        C492   1.471       .  S
C490        N491   1.361       .  A
C490        N495   1.359       .  A
C490        C874   1.483       .  S
N491        C492   1.360       .  A
C492        N493   1.356       .  A
N493        C494   1.358       .  A
C494        N495   1.358       .  A
C494        C864   1.479       .  S
C496        N497   1.361       .  A
C496        N501   1.358       .  A
C496        C854   1.482       .  S
N497        C498   1.360       .  A
C498        N499   1.356       .  A
C498        C506   1.470       .  S
N499        C500   1.358       .  A
C500        N501   1.358       .  A
C500        C844   1.479       .  S
C502        N503   1.358       .  A
C502        N507   1.358       .  A
C502        C834   1.475       .  S
N503        C504   1.358       .  A
C504        N505   1.361       .  A
C504        C824   1.482       .  S
N505        C506   1.360       .  A
C506        N507   1.355       .  A
C508        N509   1.359       .  A
C508        N513   1.358       .  A
C508        C817   1.480       .  S
N509        C510   1.359       .  A
C510        N511   1.361       .  A
C510        C804   1.483       .  S
N511        C512   1.360       .  A
C512        N513   1.356       .  A
C512        C516   1.472       .  S
C514        N515   1.361       .  A
C514        N519   1.359       .  A
C514        C794   1.482       .  S
N515        C516   1.360       .  A
C516        N517   1.356       .  A
N517        C518   1.358       .  A
C518        N519   1.358       .  A
C518        C784   1.478       .  S
C520        N521   1.360       .  A
C520        N525   1.359       .  A
C520        C764   1.481       .  S
N521        C522   1.359       .  A
C522        N523   1.356       .  A
C522        C528   1.470       .  S
N523        C524   1.359       .  A
C524        N525   1.358       .  A
C524        C774   1.478       .  S
C526        N527   1.358       .  A
C526        N531   1.358       .  A
C526        C744   1.478       .  S
N527        C528   1.356       .  A
C528        N529   1.359       .  A
N529        C530   1.360       .  A
C530        N531   1.359       .  A
C530        C754   1.479       .  S
C532        N533   1.358       .  A
C532        N537   1.358       .  A
C532        C734   1.479       .  S
N533        C534   1.356       .  A
C534        N535   1.360       .  A
C534        C542   1.471       .  S
N535        C536   1.361       .  A
C536        N537   1.359       .  A
C536        C724   1.483       .  S
C538        N539   1.359       .  A
C538        N543   1.361       .  A
C538        C714   1.481       .  S
N539        C540   1.358       .  A
C540        N541   1.358       .  A
C540        C704   1.476       .  S
N541        C542   1.356       .  A
C542        N543   1.359       .  A
C544        N562   1.348       .  A
C544        C927   1.476       .  S
N545        N567   1.320       .  A
N545       Co582   2.078       .  S
C546        N571   1.336       .  A
C546        C584   1.457       .  S
C546        H591   1.081       .  S
H547        C588   1.081       .  S
C548        N572   1.342       .  A
C548        C552   1.462       .  S
C548        H577   1.081       .  S
Co549       N567   2.090       .  S
Co549       N557   2.090       .  S
Co549       N589   2.091       .  S
Co549       N565   2.091       .  S
Co549      Cl593   2.454       .  S
N550        C588   1.336       .  A
N550        N557   1.320       .  A
N550       Co551   2.069       .  S
Co551       N554   2.080       .  S
Co551       N571   2.075       .  S
Co551       N558   2.076       .  S
Co551      Cl593   2.445       .  S
C552        N590   1.349       .  A
C552        C827   1.476       .  S
N553        N560   1.320   1_556  A
N553        N583   1.325       .  A
N553       Co586   2.089       .  S
N554        N572   1.319       .  A
N554        N590   1.323       .  A
N555        C584   1.352       .  A
N555        N565   1.326       .  A
H556        C581   1.081       .  S
N557        N578   1.326       .  A
N558        N576   1.319       .  A
N558        N563   1.323       .  A
C559        N563   1.348       .  A
C559        C587   1.465       .  S
C559        C727   1.479       .  S
N560       Co582   2.071   1_554  S
C561        N589   1.343       .  A
C561        H595   1.081       .  S
C564        N585   1.348       .  A
C564        C767   1.476       .  S
N565        N571   1.320       .  A
N566        N568   1.320   1_554  A
N566       Co582   2.074   1_554  S
N567        C581   1.343       .  A
N568        N596   1.325       .  A
N568       Co586   2.086       .  S
H569        C592   1.081       .  S
H570        C587   1.081       .  S
N572       Co586   2.085       .  S
N573        N589   1.319       .  A
N573       Co582   2.075       .  S
C574        N578   1.352       .  A
C574        C588   1.456       .  S
C574        C904   1.472       .  S
C575        C594   1.456       .  S
C575        H579   1.081       .  S
N576        C587   1.343       .  A
N576       Co586   2.092       .  S
C580        C592   1.458       .  S
C580        C707   1.473       .  S
Co582      Cl593   2.446       .  S
C584        C747   1.474       .  S
Co586      Cl593   2.453       .  S
C594        C847   1.471       .  S
C597        N615   1.349       .  A
C597        C634   1.464       .  S
C597        C887   1.478       .  S
N598        N615   1.323   1_655  A
N598        N620   1.319   1_655  A
N598       Co635   2.079       .  S
C599        C637   1.458       .  S
C599        H644   1.081       .  S
H600        C641   1.081       .  S
C601        N625   1.344       .  A
C601        H630   1.081       .  S
Co602       N620   2.088   1_655  S
Co602       N610   2.089   1_655  S
Co602       N642   2.087       .  S
Co602       N618   2.090       .  S
Co602      Cl646   2.454       .  S
N603        N610   1.320   1_654  A
N603       Co604   2.071   1_554  S
Co604       N607   2.079   1_655  S
Co604       N624   2.074   1_556  S
Co604       N611   2.076       .  S
Co604      Cl646   2.444       .  S
C605        N643   1.348       .  A
C605        C857   1.479       .  S
N606        N613   1.320   1_455  A
N606        N636   1.325       .  A
N606       Co639   2.090   1_455  S
N607        N625   1.319       .  A
N608        N618   1.326       .  A
H609        C634   1.081       .  S
N610        N631   1.325       .  A
N611        N629   1.319       .  A
C612        N616   1.348       .  A
C612        C797   1.478       .  S
N613        C628   1.336   1_655  A
N613       Co635   2.068       .  S
C614        N642   1.342       .  A
C614        C617   1.463       .  S
C614        H648   1.081       .  S
C617        N638   1.348       .  A
C617        C757   1.476       .  S
N618        N624   1.320   1_556  A
N619        C645   1.337       .  A
N619        N621   1.320       .  A
N619       Co635   2.073       .  S
N620        C634   1.343       .  A
N621        N649   1.326       .  A
N621       Co639   2.091       .  S
H622        C645   1.081       .  S
H623        C640   1.081       .  S
N625       Co639   2.092   1_455  S
N626        N638   1.323       .  A
N626        N642   1.319       .  A
N626       Co635   2.076       .  S
C627        C641   1.456       .  S
C627        C867   1.472       .  S
C628        C647   1.455       .  S
C628        H632   1.081       .  S
N629        C640   1.343       .  A
N629       Co639   2.090       .  S
C633        N649   1.351       .  A
C633        C645   1.456       .  S
C633        C814   1.472       .  S
Co635      Cl646   2.444       .  S
N636        C647   1.352       .  A
C637        C777   1.475       .  S
Co639      Cl646   2.454       .  S
C647        C837   1.471       .  S
C650        N668   1.349       .  A
C650        C687   1.462       .  S
C650        C914   1.477       .  S
N651        N668   1.323       .  A
N651        N673   1.319       .  A
N651       Co688   2.081       .  S
C652        C690   1.457       .  S
C652        H697   1.081       .  S
H653        C694   1.081       .  S
C654        N678   1.344       .  A
C654        H683   1.081       .  S
Co655       N673   2.087       .  S
Co655       N663   2.090       .  S
Co655       N695   2.092   1_565  S
Co655       N671   2.088   1_565  S
Co655      Cl699   2.454       .  S
N656        N663   1.320   1_554  A
N656       Co657   2.072   1_554  S
Co657       N660   2.078       .  S
Co657       N677   2.074   1_566  S
Co657       N664   2.077   1_565  S
Co657      Cl699   2.446       .  S
C658        N696   1.348       .  A
C658        C877   1.478       .  S
N659        N666   1.320       .  A
N659        N689   1.326       .  A
N659       Co692   2.090       .  S
N660        N678   1.320       .  A
N661        N671   1.326       .  A
H662        C687   1.081       .  S
N663        N684   1.325       .  A
N664        N682   1.319       .  A
C665        N669   1.349       .  A
C665        C717   1.477       .  S
N666        C681   1.336       .  A
N666       Co688   2.072       .  S
C667        N695   1.344       .  A
C667        C670   1.465       .  S
C667        H701   1.081       .  S
C670        N691   1.348       .  A
C670        C807   1.480       .  S
N671        N677   1.320   1_556  A
N672        C698   1.337       .  A
N672        N674   1.320       .  A
N672       Co688   2.074   1_545  S
N673        C687   1.342       .  A
N674        N702   1.326       .  A
N674       Co692   2.093   1_545  S
H675        C698   1.081       .  S
H676        C693   1.081       .  S
N678       Co692   2.092       .  S
N679        N691   1.323       .  A
N679        N695   1.319       .  A
N679       Co688   2.078   1_545  S
C680        C694   1.457       .  S
C680        C937   1.472       .  S
C681        C700   1.456       .  S
C681        H685   1.081       .  S
N682        C693   1.342       .  A
N682       Co692   2.089   1_545  S
C686        N702   1.352       .  A
C686        C698   1.457       .  S
C686        C737   1.475       .  S
Co688      Cl699   2.446       .  S
N689        C700   1.351       .  A
C690        C787   1.473       .  S
Co692      Cl699   2.454       .  S
C700        C897   1.471       .  S
C703        H709   1.083       .  S
C703        C704   1.406       .  A
C703        C708   1.399       .  A
C704        C705   1.403       .  A
C705        H710   1.083       .  S
C705        C706   1.393       .  A
C706        H711   1.082       .  S
C706        C707   1.403       .  A
C707        C708   1.404       .  A
C713        H719   1.083       .  S
C713        C714   1.405       .  A
C713        C718   1.397       .  A
C714        C715   1.407       .  A
C715        H720   1.083       .  S
C715        C716   1.399       .  A
C716        C717   1.403       .  A
C717        C718   1.405       .  A
C718        H722   1.083       .  S
C723        H729   1.083       .  S
C723        C724   1.407       .  A
C723        C728   1.399       .  A
C724        C725   1.405       .  A
C725        H730   1.083       .  S
C725        C726   1.398       .  A
C726        H731   1.083       .  S
C726        C727   1.406       .  A
C727        C728   1.403       .  A
C728        H732   1.083       .  S
C733        H739   1.083       .  S
C733        C734   1.407       .  A
C733        C738   1.400       .  A
C734        C735   1.404       .  A
C735        H740   1.083       .  S
C735        C736   1.395       .  A
C736        H741   1.082       .  S
C736        C737   1.404       .  A
C737        C738   1.403       .  A
C738        H742   1.083       .  S
C743        H749   1.083       .  S
C743        C744   1.404       .  A
C743        C748   1.394       .  A
C744        C745   1.407       .  A
C745        H750   1.083       .  S
C745        C746   1.400       .  A
C746        H751   1.083       .  S
C746        C747   1.403       .  A
C747        C748   1.403       .  A
C748        H752   1.082       .  S
C753        H759   1.083       .  S
C753        C754   1.406       .  A
C753        C758   1.398       .  A
C754        C755   1.404       .  A
C755        H760   1.083       .  S
C755        C756   1.397       .  A
C756        H761   1.083       .  S
C756        C757   1.405       .  A
C757        C758   1.403       .  A
C758        H762   1.082       .  S
C763        H769   1.083       .  S
C763        C764   1.407       .  A
C763        C768   1.399       .  A
C764        C765   1.405       .  A
C765        H770   1.083       .  S
C765        C766   1.397       .  A
C766        H771   1.083       .  S
C766        C767   1.405       .  A
C767        C768   1.402       .  A
C773        H779   1.083       .  S
C773        C774   1.404       .  A
C773        C778   1.394       .  A
C774        C775   1.406       .  A
C775        H780   1.083       .  S
C775        C776   1.400       .  A
C776        H781   1.083       .  S
C776        C777   1.404       .  A
C777        C778   1.404       .  A
C778        H782   1.082       .  S
C783        H789   1.083       .  S
C783        C784   1.404       .  A
C783        C788   1.393       .  A
C784        C785   1.407       .  A
C785        H790   1.083       .  S
C785        C786   1.400       .  A
C786        C787   1.403       .  A
C787        C788   1.403       .  A
C788        H792   1.082       .  S
C793        H799   1.083       .  S
C793        C794   1.407       .  A
C793        C798   1.400       .  A
C794        C795   1.404       .  A
C795        H800   1.083       .  S
C795        C796   1.397       .  A
C796        H801   1.083       .  S
C796        C797   1.405       .  A
C797        C798   1.403       .  A
C803        H809   1.083       .  S
C803        C804   1.404       .  A
C803        C808   1.398       .  A
C804        C805   1.407       .  A
C805        H810   1.083       .  S
C805        C806   1.400       .  A
C806        H811   1.082       .  S
C806        C807   1.403       .  A
C807        C808   1.406       .  A
C808        H812   1.083       .  S
C813        H819   1.083       .  S
C813        C814   1.403       .  A
C813        C818   1.400       .  A
C814        C815   1.403       .  A
C815        H820   1.082       .  S
C815        C816   1.394       .  A
C816        H821   1.083       .  S
C816        C817   1.405       .  A
C817        C818   1.407       .  A
C818        H822   1.083       .  S
C823        H829   1.083       .  S
C823        C824   1.408       .  A
C823        C828   1.399       .  A
C824        C825   1.405       .  A
C825        H830   1.083       .  S
C825        C826   1.397       .  A
C826        H831   1.083       .  S
C826        C827   1.404       .  A
C827        C828   1.403       .  A
C828        H832   1.083       .  S
C833        H839   1.083       .  S
C833        C834   1.406       .  A
C833        C838   1.398       .  A
C834        C835   1.404       .  A
C835        H840   1.083       .  S
C835        C836   1.393       .  A
C836        H841   1.082       .  S
C836        C837   1.403       .  A
C837        C838   1.402       .  A
C838        H842   1.083       .  S
C843        H849   1.083       .  S
C843        C844   1.405       .  A
C843        C848   1.394       .  A
C844        C845   1.407       .  A
C845        H850   1.083       .  S
C845        C846   1.398       .  A
C846        H851   1.083       .  S
C846        C847   1.402       .  A
C847        C848   1.403       .  A
C848        H852   1.083       .  S
C853        H859   1.083       .  S
C853        C854   1.408       .  A
C853        C858   1.400       .  A
C854        C855   1.405       .  A
C855        H860   1.083       .  S
C855        C856   1.398       .  A
C856        H861   1.083       .  S
C856        C857   1.406       .  A
C857        C858   1.403       .  A
C863        H869   1.083       .  S
C863        C864   1.407       .  A
C863        C868   1.398       .  A
C864        C865   1.405       .  A
C865        H870   1.083       .  S
C865        C866   1.394       .  A
C866        H871   1.082       .  S
C866        C867   1.403       .  A
C867        C868   1.402       .  A
C868        H872   1.083       .  S
C873        H879   1.083       .  S
C873        C874   1.408       .  A
C873        C878   1.400       .  A
C874        C875   1.405       .  A
C875        H880   1.083       .  S
C875        C876   1.397       .  A
C876        H881   1.083       .  S
C876        C877   1.405       .  A
C877        C878   1.403       .  A
C883        H889   1.083       .  S
C883        C884   1.407       .  A
C883        C888   1.399       .  A
C884        C885   1.405       .  A
C885        H890   1.083       .  S
C885        C886   1.398       .  A
C886        H891   1.083       .  S
C886        C887   1.405       .  A
C887        C888   1.403       .  A
C888        H892   1.083       .  S
C893        H899   1.083       .  S
C893        C894   1.408       .  A
C893        C898   1.399       .  A
C894        C895   1.405       .  A
C895        H900   1.083       .  S
C895        C896   1.394       .  A
C896        H901   1.083       .  S
C896        C897   1.403       .  A
C897        C898   1.402       .  A
C898        H902   1.083       .  S
C903        H909   1.083       .  S
C903        C904   1.403       .  A
C903        C908   1.398       .  A
C904        C905   1.404       .  A
C905        H910   1.082       .  S
C905        C906   1.394       .  A
C906        H911   1.083       .  S
C906        C907   1.404       .  A
C907        C908   1.406       .  A
C908        H912   1.083       .  S
C913        H919   1.083       .  S
C913        C914   1.404       .  A
C913        C918   1.398       .  A
C914        C915   1.403       .  A
C915        H920   1.083       .  S
C915        C916   1.399       .  A
C916        H921   1.083       .  S
C916        C917   1.408       .  A
C917        C918   1.405       .  A
C918        H922   1.083       .  S
C923        H929   1.083       .  S
C923        C924   1.405       .  A
C923        C928   1.397       .  A
C924        C925   1.408       .  A
C925        H930   1.083       .  S
C925        C926   1.399       .  A
C926        H931   1.083       .  S
C926        C927   1.403       .  A
C927        C928   1.404       .  A
C928        H932   1.083       .  S
C933        H939   1.083       .  S
C933        C934   1.406       .  A
C933        C938   1.397       .  A
C934        C935   1.404       .  A
C935        H940   1.083       .  S
C935        C936   1.394       .  A
C936        H941   1.082       .  S
C936        C937   1.404       .  A
C937        C938   1.403       .  A
