geometry optimzed in LAMMPS
_audit_creation_date              2020-11-30 
_audit_creation_method            'lammps2cif' 
_symmetry_space_group_name_H-M    'P1' 
_symmetry_Int_Tables_number       1 
_symmetry_cell_setting            triclinic 
loop_ 
_symmetry_equiv_pos_as_xyz 
  x,y,z 
_cell_length_a                    23.624049502188495 
_cell_length_b                    23.826406315505505 
_cell_length_c                    23.75716712366956 
_cell_angle_alpha                 91.4351993531875 
_cell_angle_beta                  90.23377550513011 
_cell_angle_gamma                 89.39587923313591 
loop_ 
_atom_site_label 
_atom_site_type_symbol 
_atom_site_fract_x 
_atom_site_fract_y 
_atom_site_fract_z 
_atom_site_charge 
C1          C  0.88329158  0.29083831  0.51354173    -0.02820
C2          C  0.86548486  0.46196824  0.31695049    -0.02820
C3          C  0.88298861  0.47513555  0.67630745    -0.02820
C4          C  0.86369452  0.65359677  0.51425354    -0.02820
O5          O  0.82614493  0.46837120  0.41624520    -0.74760
O6          O  0.83169465  0.46850423  0.58244024    -0.74790
O7          O  0.82581119  0.55323849  0.50514098    -0.74840
O8          O  0.83370151  0.38591659  0.49952036    -0.74890
O9          O  0.92608186  0.38889825  0.49534950    -0.74830
O10         O  0.91846492  0.55847868  0.49968145    -0.74800
O11         O  0.92358575  0.47448169  0.57816542    -0.74780
O12         O  0.91921467  0.47175743  0.41116259    -0.74840
Ni13       Ni  0.82634713  0.46914389  0.50016119     1.25410
Ni14       Ni  0.92498294  0.47358642  0.49546017     1.25360
C15         C  0.87114915  0.46777402  0.38503505     0.87420
C16         C  0.87906042  0.47107267  0.60882488     0.87350
C17         C  0.87056663  0.58474919  0.50729758     0.87380
C18         C  0.88118508  0.35892357  0.50272773     0.87550
C19         C  0.33353123  0.81535161  0.50095052    -0.02820
C20         C  0.52465355  0.81811278  0.32175092    -0.02820
C21         C  0.50562841  0.80307817  0.68666557    -0.02820
C22         C  0.70416006  0.80855390  0.50725865    -0.02820
O23         O  0.52193495  0.76859263  0.41830725    -0.74760
O24         O  0.51447856  0.76399871  0.58654179    -0.74790
O25         O  0.43276462  0.76897402  0.50129019    -0.74840
O26         O  0.60350923  0.76434471  0.50709337    -0.74890
O27         O  0.60289753  0.85569497  0.50664770    -0.74830
O28         O  0.43296191  0.86075430  0.51070663    -0.74800
O29         O  0.51892252  0.85619467  0.59366935    -0.74780
O30         O  0.51639160  0.86001155  0.42452910    -0.74840
Ni31       Ni  0.51809517  0.76346612  0.50298942     1.25410
Ni32       Ni  0.51801571  0.86110571  0.50907825     1.25360
C33         C  0.52086378  0.81582882  0.39193365     0.87420
C34         C  0.51451700  0.80875252  0.61885804     0.87350
C35         C  0.40336797  0.81545228  0.50597696     0.87380
C36         C  0.63313348  0.81011442  0.50744834     0.87550
C37         C  0.52907714  0.28420453  0.84834814    -0.02820
C38         C  0.34619229  0.47940886  0.84092574    -0.02820
C39         C  0.71051278  0.42740579  0.83589619    -0.02820
C40         C  0.51202482  0.64580238  0.84190485    -0.02820
O41         O  0.52317129  0.37797453  0.80100413    -0.74760
O42         O  0.52767708  0.54553338  0.79797104    -0.74790
O43         O  0.61152159  0.45258631  0.79552324    -0.74840
O44         O  0.44329163  0.46632127  0.79665691    -0.74890
O45         O  0.44468888  0.46828011  0.88873763    -0.74830
O46         O  0.61556418  0.45321257  0.88756519    -0.74800
O47         O  0.53330683  0.54879186  0.88989099    -0.74780
O48         O  0.52468408  0.38111244  0.89397976    -0.74840
Ni49       Ni  0.52689152  0.46078220  0.79489897     1.25410
Ni50       Ni  0.52987620  0.46371583  0.89318651     1.25360
C51         C  0.52357814  0.35129825  0.84817248     0.87420
C52         C  0.52711443  0.57670769  0.84387773     0.87350
C53         C  0.64221645  0.44511589  0.83981450     0.87380
C54         C  0.41488603  0.47004862  0.84280765     0.87550
C55         C  0.37216295  0.97614895  0.82209887    -0.02820
C56         C  0.36939466  0.77749026  0.01821059    -0.02820
C57         C  0.37451444  0.14197967  0.99602456    -0.02820
C58         C  0.37668757  0.95985624  0.18123091    -0.02820
O59         O  0.32581569  0.96030693  0.91772413    -0.74760
O60         O  0.32959531  0.96308153  0.08480815    -0.74790
O61         O  0.32984265  0.04483926  0.99945731    -0.74840
O62         O  0.32654243  0.87679941  0.00352640    -0.74890
O63         O  0.41907839  0.87433255  0.00394010    -0.74830
O64         O  0.42296906  0.04343730  0.99634061    -0.74800
O65         O  0.42233952  0.96388032  0.08314862    -0.74780
O66         O  0.41794627  0.95510877  0.91612258    -0.74840
Ni67       Ni  0.32495051  0.96114070  0.00131901     1.25410
Ni68       Ni  0.42365520  0.95883741  0.99964708     1.25360
C69         C  0.37132143  0.96160083  0.88848606     0.87420
C70         C  0.37680572  0.96275409  0.11278679     0.87350
C71         C  0.37654022  0.07303971  0.99637285     0.87380
C72         C  0.37243534  0.84641865  0.00745412     0.87550
C73         C  0.02750427  0.62708526  0.81398722    -0.02820
C74         C  0.83696547  0.59864672  0.97984807    -0.02820
C75         C  0.20491325  0.62350693  0.00490923    -0.02820
C76         C  0.02459728  0.60143244  0.17263712    -0.02820
O77         O  0.02155487  0.66257046  0.91503997    -0.74760
O78         O  0.01471600  0.65410419  0.08105869    -0.74790
O79         O  0.10255354  0.66127296  0.00251132    -0.74840
O80         O  0.93232707  0.65262866  0.99293857    -0.74890
O81         O  0.93976848  0.56143965  0.98885504    -0.74830
O82         O  0.11006192  0.56933075  0.99232084    -0.74800
O83         O  0.02351434  0.56259975  0.07285169    -0.74780
O84         O  0.02440582  0.57053211  0.90547087    -0.74840
Ni85       Ni  0.01744175  0.66060775  0.99808712     1.25410
Ni86       Ni  0.02460892  0.56293300  0.98953012     1.25360
C87         C  0.02365738  0.61894176  0.88165466     0.87420
C88         C  0.02124250  0.60677937  0.10536489     0.87350
C89         C  0.13553308  0.61701435  0.99962613     0.87380
C90         C  0.90653898  0.60476773  0.98855281     0.87550
C91         C  0.66727277  0.78757268  0.98544098    -0.02820
C92         C  0.66022994  0.94678257  0.81819191    -0.02820
C93         C  0.68836671  0.14996402  0.99349368    -0.02820
C94         C  0.66603427  0.98343625  0.18613931    -0.02820
O95         O  0.71454927  0.95750108  0.91521057    -0.74760
O96         O  0.71377238  0.97259050  0.08674998    -0.74790
O97         O  0.71546761  0.88251836  0.00256275    -0.74840
O98         O  0.72080851  0.04827133  0.99734135    -0.74890
O99         O  0.62817978  0.05746200  0.99738342    -0.74830
O100        O  0.62332852  0.88726419  0.00197822    -0.74800
O101        O  0.62083549  0.97860154  0.08557990    -0.74780
O102        O  0.62208664  0.96620399  0.91717371    -0.74840
Ni103      Ni  0.71911614  0.96540298  0.00084829     1.25410
Ni104      Ni  0.62056767  0.97249176  0.00084470     1.25360
C105        C  0.66681769  0.95764365  0.88712530     0.87420
C106        C  0.66663355  0.97865640  0.11561612     0.87350
C107        C  0.66892709  0.85578410  0.99879481     0.87380
C108        C  0.67732240  0.08181655  0.99677349     0.87550
C109        C  0.34332985  0.47028464  0.15740836    -0.02820
C110        C  0.54021462  0.28098790  0.14664161    -0.02820
C111        C  0.53911808  0.65247912  0.16077543    -0.02820
C112        C  0.71086455  0.46757466  0.14871453    -0.02820
O113        O  0.53036699  0.38112740  0.19449598    -0.74760
O114        O  0.53194655  0.55182351  0.20231862    -0.74790
O115        O  0.44383001  0.47044523  0.20071403    -0.74840
O116        O  0.61281590  0.46281017  0.19436238    -0.74890
O117        O  0.60887126  0.46616144  0.10278432    -0.74830
O118        O  0.43960400  0.47175931  0.10855521    -0.74800
O119        O  0.52369484  0.55333820  0.11100065    -0.74780
O120        O  0.52048215  0.38196562  0.10310053    -0.74840
Ni121      Ni  0.52916397  0.46646205  0.20094336     1.25410
Ni122      Ni  0.52324014  0.46817207  0.10339443     1.25360
C123        C  0.52902918  0.35165287  0.14741736     0.87420
C124        C  0.52993347  0.58235258  0.15751719     0.87350
C125        C  0.41257952  0.47274253  0.15567019     0.87380
C126        C  0.64049988  0.46393866  0.14755287     0.87550
C127        C  0.84380664  0.29713940  0.99880969    -0.02820
C128        C  0.01929026  0.31344675  0.82220625    -0.02820
C129        C  0.21893421  0.31641819  0.98890811    -0.02820
C130        C  0.01395835  0.30121170  0.18995792    -0.02820
O131        O  0.02797522  0.26814306  0.91887109    -0.74760
O132        O  0.02873903  0.26117412  0.08767989    -0.74790
O133        O  0.94682259  0.25967698  0.99960573    -0.74840
O134        O  0.11828647  0.26859561  0.00002055    -0.74890
O135        O  0.11392753  0.35947695  0.01126744    -0.74830
O136        O  0.94068464  0.35145983  0.00351644    -0.74800
O137        O  0.02119513  0.35301121  0.09396099    -0.74780
O138        O  0.02677356  0.35970649  0.92395477    -0.74840
Ni139      Ni  0.03141674  0.26160289  0.00202034     1.25410
Ni140      Ni  0.02603906  0.35892899  0.00874775     1.25360
C141        C  0.02453261  0.31481279  0.89210518     0.87420
C142        C  0.02076698  0.30568177  0.12010392     0.87350
C143        C  0.91418581  0.30380495  0.99896898     0.87380
C144        C  0.14674772  0.31562417  0.00191831     0.87550
C145        C  0.83766750  0.97786665  0.64519114    -0.02820
C146        C  0.01850818  0.78943758  0.66358543    -0.02820
C147        C  0.02923917  0.15571406  0.65935467    -0.02820
C148        C  0.19709235  0.97414004  0.65015619    -0.02820
O149        O  0.02053040  0.05848634  0.70109103    -0.74760
O150        O  0.01890156  0.89102092  0.70270452    -0.74790
O151        O  0.10254056  0.97453888  0.70299594    -0.74840
O152        O  0.93366838  0.97667591  0.69703828    -0.74890
O153        O  0.93637831  0.97701330  0.60455650    -0.74830
O154        O  0.10127188  0.96809523  0.61085650    -0.74800
O155        O  0.01807368  0.88580369  0.61015268    -0.74780
O156        O  0.02703466  0.05675085  0.60861839    -0.74840
Ni157      Ni  0.01846045  0.97512619  0.70400045     1.25410
Ni158      Ni  0.02025033  0.97163706  0.60551751     1.25360
C159        C  0.02619312  0.08659298  0.65543635     0.87420
C160        C  0.01953494  0.85905500  0.65761032     0.87350
C161        C  0.13020185  0.97193523  0.65622998     0.87380
C162        C  0.90614186  0.97931660  0.64977549     0.87550
C163        C  0.17805229  0.28548912  0.50126105    -0.02820
C164        C  0.16745403  0.45693099  0.32148310    -0.02820
C165        C  0.17470198  0.46076484  0.68418907    -0.02820
C166        C  0.16814458  0.64289631  0.50722997    -0.02820
O167        O  0.22116979  0.46578371  0.41635095    -0.74760
O168        O  0.22163896  0.46425458  0.58594355    -0.74790
O169        O  0.22152145  0.38241734  0.49780539    -0.74840
O170        O  0.22169508  0.54924105  0.50320937    -0.74890
O171        O  0.12897584  0.54698188  0.50754661    -0.74830
O172        O  0.12851493  0.38209147  0.49849680    -0.74800
O173        O  0.12873487  0.46702915  0.58640608    -0.74780
O174        O  0.12894606  0.46685127  0.42036584    -0.74840
Ni175      Ni  0.22488615  0.46557066  0.50099556     1.25410
Ni176      Ni  0.12599295  0.46561115  0.50309415     1.25360
C177        C  0.17325709  0.46499736  0.38949531     0.87420
C178        C  0.17492407  0.46440549  0.61516933     0.87350
C179        C  0.17520900  0.35350777  0.49719150     0.87380
C180        C  0.17391350  0.57624347  0.50506316     0.87550
C181        C  0.33090857  0.12164658  0.49278988    -0.02820
C182        C  0.51020631  0.12895790  0.32368274    -0.02820
C183        C  0.52212628  0.12071349  0.68939157    -0.02820
C184        C  0.69736962  0.13153708  0.50165176    -0.02820
O185        O  0.50986307  0.17477047  0.42275830    -0.74760
O186        O  0.51683170  0.16795845  0.59170474    -0.74790
O187        O  0.59759015  0.17800995  0.50433157    -0.74840
O188        O  0.42815491  0.16672556  0.50777420    -0.74890
O189        O  0.43129819  0.07500976  0.49475754    -0.74830
O190        O  0.60087610  0.08575760  0.50872569    -0.74800
O191        O  0.50723237  0.07737026  0.58737090    -0.74780
O192        O  0.52452333  0.08378304  0.41947228    -0.74840
Ni193      Ni  0.51262992  0.17501780  0.50719389     1.25410
Ni194      Ni  0.51633763  0.07742669  0.50267296     1.25360
C195        C  0.51642324  0.12927669  0.39215281     0.87420
C196        C  0.51274733  0.12151776  0.61937645     0.87350
C197        C  0.62828784  0.13278058  0.50512635     0.87380
C198        C  0.40049475  0.12021380  0.49869455     0.87550
C199        C  0.00880791  0.77432710  0.35657221    -0.02820
C200        C  0.82974552  0.96885195  0.35558988    -0.02820
C201        C  0.20503347  0.96299112  0.33697308    -0.02820
C202        C  0.02625324  0.13975179  0.35061811    -0.02820
O203        O  0.02855532  0.04297043  0.39578916    -0.74760
O204        O  0.01707273  0.87600377  0.39771537    -0.74790
O205        O  0.10826973  0.95692105  0.39192373    -0.74840
O206        O  0.93398493  0.96781141  0.40196670    -0.74890
O207        O  0.92979600  0.96124073  0.30980379    -0.74830
O208        O  0.10127849  0.95624674  0.29970015    -0.74800
O209        O  0.01280711  0.87158917  0.30551999    -0.74780
O210        O  0.01692588  0.04115816  0.30475989    -0.74840
Ni211      Ni  0.02187093  0.96052647  0.39980994     1.25410
Ni212      Ni  0.01514648  0.95706273  0.30203828     1.25360
C213        C  0.02419922  0.07104695  0.35058731     0.87420
C214        C  0.01370667  0.84430664  0.35245359     0.87350
C215        C  0.13452461  0.95861193  0.34376605     0.87380
C216        C  0.90174948  0.96778766  0.35681973     0.87550
C217        C  0.80367846  0.08256393  0.37852111    -0.09490
C218        C  0.79146260  0.02441171  0.37614520     0.06710
C219        C  0.73111439  0.02072679  0.38031692    -0.03260
C220        C  0.69864583  0.05101891  0.42085590    -0.07710
C221        C  0.71784577  0.10243696  0.44065474     0.05820
C222        C  0.76177945  0.12209177  0.40196564    -0.02730
Br223      Br  0.76067953  0.19658160  0.37358305    -0.02430
H224        H  0.84257132  0.09793048  0.36117684     0.09730
H225        H  0.65794620  0.03571603  0.43371241     0.07750
Br226      Br  0.69173996  0.97657543  0.33214693    -0.02850
C227        C  0.32895153  0.06183424  0.39928396    -0.09490
C228        C  0.30378902  0.10286998  0.43212253     0.06710
C229        C  0.24586546  0.11243416  0.41435698    -0.03260
C230        C  0.21100303  0.06729325  0.39132966    -0.07710
C231        C  0.23617205  0.02070613  0.36331668     0.05820
C232        C  0.29695349  0.02609250  0.36311874    -0.02730
Br233      Br  0.34113189  0.97769991  0.32457976    -0.02430
H234        H  0.37346173  0.05631954  0.40411118     0.09730
H235        H  0.16613958  0.07254930  0.38590395     0.07750
Br236      Br  0.24436286  0.16928412  0.36108247    -0.02850
C237        C  0.15539538  0.72332900  0.42723067    -0.09490
C238        C  0.13963030  0.66989412  0.45153925     0.06710
C239        C  0.08956112  0.64897129  0.42734393    -0.03260
C240        C  0.05243074  0.68455315  0.40115865    -0.07710
C241        C  0.06138330  0.73954404  0.38400525     0.05820
C242        C  0.11710044  0.75559233  0.39211406    -0.02730
Br243      Br  0.13814771  0.81540543  0.34698944    -0.02430
H244        H  0.19667797  0.74070434  0.43489838     0.09730
H245        H  0.01252920  0.66903302  0.40046118     0.07750
Br246      Br  0.06649636  0.57284095  0.41434135    -0.02850
C247        C  0.27349903  0.26376134  0.45179481    -0.09490
C248        C  0.24204467  0.27283617  0.50135673     0.06710
C249        C  0.27396651  0.26451330  0.54953515    -0.03260
C250        C  0.30027173  0.21222760  0.55098504    -0.07710
C251        C  0.31555153  0.18502118  0.49953281     0.05820
C252        C  0.31590384  0.22170770  0.45325671    -0.02730
Br253      Br  0.37170921  0.21619015  0.39544556    -0.02430
H254        H  0.26206986  0.28367248  0.41282706     0.09730
H255        H  0.31723728  0.20062272  0.59046636     0.07750
Br256      Br  0.32640227  0.32373532  0.56582703    -0.02850
C257        C  0.10620622  0.15119360  0.42818057    -0.09490
C258        C  0.08438748  0.16783260  0.37610544     0.06710
C259        C  0.10879378  0.22032891  0.35994195    -0.03260
C260        C  0.13370965  0.25999314  0.39900619    -0.07710
C261        C  0.15293488  0.24349432  0.45196376     0.05820
C262        C  0.14383607  0.18465784  0.46130022    -0.02730
Br263      Br  0.17716295  0.14663204  0.52190252    -0.02430
H264        H  0.09582062  0.11031159  0.44305458     0.09730
H265        H  0.14541612  0.30115661  0.38500182     0.07750
Br266      Br  0.14747877  0.22454246  0.29143051    -0.02850
C267        C  0.24758167  0.07402556  0.63039131    -0.09490
C268        C  0.21326419  0.02725019  0.61080793     0.06710
C269        C  0.21310317  0.02186138  0.55180652    -0.03260
C270        C  0.25677720  0.04436976  0.52007065    -0.07710
C271        C  0.29591059  0.08549759  0.53820561     0.05820
C272        C  0.29231685  0.09664363  0.59667017    -0.02730
Br273      Br  0.36189688  0.11454863  0.63315664    -0.02430
H274        H  0.24922026  0.08411890  0.67491696     0.09730
H275        H  0.25469049  0.03368836  0.47822201     0.07750
Br276      Br  0.14520135  0.00802375  0.50841650    -0.02850
C277        C  0.06891100  0.20012825  0.57051749    -0.09490
C278        C  0.08312796  0.18256381  0.62525520     0.06710
C279        C  0.13627604  0.20784811  0.64365524    -0.03260
C280        C  0.16656682  0.24571412  0.60833117    -0.07710
C281        C  0.14475594  0.26515217  0.55597351     0.05820
C282        C  0.08842362  0.25048764  0.54758904    -0.02730
Br283      Br  0.04493023  0.29554835  0.49678442    -0.02430
H284        H  0.03754701  0.17729055  0.54958364     0.09730
H285        H  0.20704411  0.25922813  0.62318242     0.07750
Br286      Br  0.18550955  0.18210580  0.70208454    -0.02850
C287        C  0.04642453  0.71842048  0.58076954    -0.09490
C288        C  0.06691287  0.75101890  0.62761748     0.06710
C289        C  0.12184364  0.72717993  0.64554454    -0.03260
C290        C  0.14809865  0.67853200  0.61649337    -0.07710
C291        C  0.12916505  0.65950721  0.56184841     0.05820
C292        C  0.07245762  0.67100537  0.55436131    -0.02730
Br293      Br  0.02757042  0.60461940  0.54657619    -0.02430
H294        H  0.00496541  0.72440572  0.56854295     0.09730
H295        H  0.18931689  0.66429647  0.63071365     0.07750
Br296      Br  0.17752816  0.76448924  0.69097285    -0.02850
C297        C  0.79745470  0.09135414  0.63349176    -0.09490
C298        C  0.80014293  0.03131610  0.62112880     0.06710
C299        C  0.74445884  0.01980026  0.60450663    -0.03260
C300        C  0.72448470  0.04619522  0.55686681    -0.07710
C301        C  0.72000450  0.10293268  0.55830207     0.05820
C302        C  0.75509789  0.12723281  0.60496952    -0.02730
Br303      Br  0.73802487  0.19874737  0.64018422    -0.02430
H304        H  0.82123198  0.10851094  0.66820943     0.09730
H305        H  0.73152536  0.02725709  0.51650601     0.07750
Br306      Br  0.69520699  0.03702840  0.66482846    -0.02850
C307        C  0.96576255  0.16506023  0.26386954    -0.09490
C308        C  0.01843874  0.15476642  0.28633230     0.06710
C309        C  0.05877752  0.15372658  0.24230017    -0.03260
C310        C  0.05668540  0.19919986  0.20436249    -0.07710
C311        C  0.00987288  0.23634217  0.20527070     0.05820
C312        C  0.95953120  0.20870484  0.22595613    -0.02730
Br313      Br  0.88117685  0.22794362  0.21615752    -0.02430
H314        H  0.92950701  0.14743580  0.28336235     0.09730
H315        H  0.08627937  0.20004221  0.17014557     0.07750
Br316      Br  0.07420268  0.08359694  0.20392285    -0.02850
C317        C  0.04811361  0.38219194  0.26135420    -0.09490
C318        C  0.06348287  0.33725695  0.22377311     0.06710
C319        C  0.12263704  0.32789584  0.22597976    -0.03260
C320        C  0.15840177  0.35611647  0.26807116    -0.07710
C321        C  0.13724744  0.39808898  0.30715542     0.05820
C322        C  0.07839167  0.39782201  0.30997353    -0.02730
Br323      Br  0.03587058  0.42222268  0.37482456    -0.02430
H324        H  0.00940544  0.40304948  0.25593708     0.09730
H325        H  0.20309679  0.34870021  0.26721799     0.07750
Br326      Br  0.15619736  0.28461158  0.16724292    -0.02850
C327        C  0.97104205  0.22053140  0.79744274    -0.09490
C328        C  0.02003756  0.25005401  0.80758890     0.06710
C329        C  0.06979053  0.21632369  0.80238033    -0.03260
C330        C  0.07165963  0.17784105  0.75696993    -0.07710
C331        C  0.02439380  0.17113214  0.72314461     0.05820
C332        C  0.97203974  0.18130986  0.75305824    -0.02730
Br333      Br  0.90115757  0.14738200  0.73913101    -0.02430
H334        H  0.93172002  0.23285106  0.81783966     0.09730
H335        H  0.10199648  0.14373827  0.75631709     0.07750
Br336      Br  0.10330884  0.18495426  0.86840599    -0.02850
C337        C  0.05783754  0.35241168  0.72522036    -0.09490
C338        C  0.06817974  0.33927490  0.78243994     0.06710
C339        C  0.12328848  0.35050745  0.79818457    -0.03260
C340        C  0.16187424  0.37985679  0.76380139    -0.07710
C341        C  0.14553310  0.40579857  0.71203904     0.05820
C342        C  0.09514982  0.38348585  0.69191355    -0.02730
Br343      Br  0.09621942  0.36314715  0.61725493    -0.02430
H344        H  0.01898818  0.34050247  0.70595349     0.09730
H345        H  0.20414176  0.38327528  0.78035027     0.07750
Br346      Br  0.14592662  0.32029186  0.86406850    -0.02850
C347        C  0.73844710  0.36070265  0.11777702    -0.09490
C348        C  0.75130165  0.41861567  0.11615061     0.06710
C349        C  0.80444300  0.42693845  0.08296111    -0.03260
C350        C  0.83093894  0.38429609  0.05200082    -0.07710
C351        C  0.81870385  0.32860588  0.05397548     0.05820
C352        C  0.77310547  0.31697016  0.09253488    -0.02730
Br353      Br  0.76854107  0.25219527  0.13698137    -0.02430
H354        H  0.70129523  0.34813472  0.14011778     0.09730
H355        H  0.85576263  0.39578238  0.01664345     0.07750
Br356      Br  0.86790122  0.47932747  0.07586874    -0.02850
C357        C  0.57673400  0.25201372  0.24868818    -0.09490
C358        C  0.53214237  0.26388619  0.21081475     0.06710
C359        C  0.47832996  0.26066798  0.23704352    -0.03260
C360        C  0.46865608  0.22257697  0.28046600    -0.07710
C361        C  0.51361366  0.19222319  0.30385386     0.05820
C362        C  0.56682636  0.21896946  0.29655465    -0.02730
Br363      Br  0.62125250  0.22077496  0.35579731    -0.02430
H364        H  0.61895842  0.26717433  0.24091284     0.09730
H365        H  0.42688140  0.21958398  0.29736104     0.07750
Br366      Br  0.42862902  0.32256517  0.23744168    -0.02850
C367        C  0.27811436  0.51484618  0.23100685    -0.09490
C368        C  0.32242594  0.47725151  0.22151017     0.06710
C369        C  0.32899460  0.44229336  0.27050422    -0.03260
C370        C  0.28050021  0.43465478  0.30727299    -0.07710
C371        C  0.22733628  0.45983659  0.29280679     0.05820
C372        C  0.22924934  0.48761616  0.24251069    -0.02730
Br373      Br  0.20708596  0.43358476  0.18719070    -0.02430
H374        H  0.27444595  0.55528747  0.21171176     0.09730
H375        H  0.28513806  0.41189832  0.34587019     0.07750
Br376      Br  0.39986225  0.43816305  0.30939415    -0.02850
C377        C  0.26445052  0.33373330  0.09354349    -0.09490
C378        C  0.26416600  0.34576380  0.03544172     0.06710
C379        C  0.31120934  0.38535311  0.02446411    -0.03260
C380        C  0.33637855  0.41862460  0.06631044    -0.07710
C381        C  0.32648200  0.41419997  0.12301654     0.05820
C382        C  0.29697054  0.36380026  0.13602430    -0.02730
Br383      Br  0.29667611  0.33189770  0.20881869    -0.02430
H384        H  0.24186352  0.29835993  0.10605676     0.09730
H385        H  0.35970480  0.45497245  0.05407037     0.07750
Br386      Br  0.37047533  0.39465201  0.96917488    -0.02850
C387        C  0.78102848  0.91543659  0.26898119    -0.09490
C388        C  0.81178754  0.96220372  0.29113304     0.06710
C389        C  0.81417872  0.00754298  0.25289890    -0.03260
C390        C  0.77195484  0.01336132  0.21068839    -0.07710
C391        C  0.72991051  0.97256585  0.20495638     0.05820
C392        C  0.75182448  0.91917741  0.21816317    -0.02730
Br393      Br  0.80024240  0.88617370  0.16112120    -0.02430
H394        H  0.77396156  0.87757959  0.29096212     0.09730
H395        H  0.77164559  0.04970923  0.18492315     0.07750
Br396      Br  0.87367615  0.05947146  0.25237959    -0.02850
C397        C  0.61598765  0.09059887  0.30283389    -0.09490
C398        C  0.55959386  0.10018484  0.28634754     0.06710
C399        C  0.55080352  0.09052622  0.22756495    -0.03260
C400        C  0.58615107  0.05632605  0.19373942    -0.07710
C401        C  0.64088028  0.04195778  0.21082229     0.05820
C402        C  0.65726278  0.07111564  0.26243174    -0.02730
Br403      Br  0.72196424  0.11797730  0.26481070    -0.02430
H404        H  0.62964029  0.10520613  0.34395838     0.09730
H405        H  0.56974393  0.03981620  0.15441294     0.07750
Br406      Br  0.50021771  0.13412039  0.18798119    -0.02850
C407        C  0.78857719  0.15849362  0.04017316    -0.09490
C408        C  0.75413795  0.15420864  0.99151397     0.06710
C409        C  0.78620509  0.16008606  0.94333948    -0.03260
C410        C  0.82451108  0.20443218  0.94381556    -0.07710
C411        C  0.83407160  0.23358784  0.99528667     0.05820
C412        C  0.83140390  0.19865675  0.04136785    -0.02730
Br413      Br  0.89717411  0.18466449  0.08564406    -0.02430
H414        H  0.78720103  0.12830933  0.07271770     0.09730
H415        H  0.84970096  0.21202908  0.90708971     0.07750
Br416      Br  0.80980775  0.09347633  0.90334961    -0.02850
C417        C  0.66425553  0.24947986  0.03979025    -0.09490
C418        C  0.67251346  0.19124411  0.04698925     0.06710
C419        C  0.66504961  0.17691120  0.10308834    -0.03260
C420        C  0.62862954  0.20926672  0.13996827    -0.07710
C421        C  0.60210108  0.26100534  0.12360467     0.05820
C422        C  0.62779566  0.28241919  0.07465799    -0.02730
Br423      Br  0.61676123  0.35544053  0.04920069    -0.02430
H424        H  0.67950332  0.26767178  0.00187473     0.09730
H425        H  0.61582425  0.18797447  0.17709771     0.07750
Br426      Br  0.69642680  0.10965124  0.12638255    -0.02850
C427        C  0.76635881  0.97062853  0.79906694    -0.09490
C428        C  0.71633332  0.94046169  0.78365928     0.06710
C429        C  0.71525465  0.91991339  0.72643640    -0.03260
C430        C  0.75648499  0.93445294  0.69120554    -0.07710
C431        C  0.80531835  0.96394544  0.70224231     0.05820
C432        C  0.81065788  0.98176183  0.75982293    -0.02730
Br433      Br  0.87338058  0.02185736  0.79017155    -0.02430
H434        H  0.77016050  0.98940170  0.84051296     0.09730
H435        H  0.74467225  0.93068417  0.64879957     0.07750
Br436      Br  0.66047348  0.88577784  0.67334697    -0.02850
C437        C  0.61740552  0.09586358  0.75122182    -0.09490
C438        C  0.57900735  0.08331990  0.70383565     0.06710
C439        C  0.57732381  0.02411325  0.69276073    -0.03260
C440        C  0.59725824  0.98518917  0.73242165    -0.07710
C441        C  0.62836973  0.99647317  0.78282558     0.05820
C442        C  0.64006532  0.05404122  0.78878414    -0.02730
Br443      Br  0.67433226  0.07704802  0.85635518    -0.02430
H444        H  0.62664307  0.13746547  0.76569120     0.09730
H445        H  0.58922379  0.94471155  0.71933118     0.07750
Br446      Br  0.56961406  0.98892620  0.61906827    -0.02850
C447        C  0.63756437  0.70861768  0.13383483    -0.09490
C448        C  0.59096924  0.67147595  0.12022084     0.06710
C449        C  0.58419835  0.66532572  0.06127029    -0.03260
C450        C  0.60138192  0.70690906  0.02418733    -0.07710
C451        C  0.64116583  0.75065847  0.03673451     0.05820
C452        C  0.66526912  0.74338472  0.09248147    -0.02730
Br453      Br  0.74439818  0.76007031  0.10840308    -0.02430
H454        H  0.65304609  0.71397839  0.17567892     0.09730
H455        H  0.59388497  0.69392112  0.98189812     0.07750
Br456      Br  0.58186524  0.59279287  0.02328532    -0.02850
C457        C  0.00622740  0.64404539  0.26374312    -0.09490
C458        C  0.01723377  0.65707041  0.20876514     0.06710
C459        C  0.03361247  0.71413008  0.20217331    -0.03260
C460        C  0.02637511  0.75371256  0.24842609    -0.07710
C461        C  0.99946603  0.73877893  0.29977359     0.05820
C462        C  0.98252411  0.68021001  0.30059821    -0.02730
Br463      Br  0.93956046  0.62667819  0.34583017    -0.02430
H464        H  0.01363130  0.60148396  0.27724122     0.09730
H465        H  0.04570271  0.79431306  0.24518812     0.07750
Br466      Br  0.08039979  0.73755167  0.14163886    -0.02850
C467        C  0.10586678  0.48602263  0.23378629    -0.09490
C468        C  0.12935005  0.50398153  0.28701475     0.06710
C469        C  0.13887681  0.56326754  0.28705721    -0.03260
C470        C  0.11534845  0.59798668  0.24349450    -0.07710
C471        C  0.08343641  0.57525240  0.19598983     0.05820
C472        C  0.09532395  0.51894596  0.18716715    -0.02730
Br473      Br  0.09493839  0.48099313  0.11442124    -0.02430
H474        H  0.10744211  0.44403873  0.22007459     0.09730
H475        H  0.11984446  0.64295923  0.24870068     0.07750
Br476      Br  0.19228521  0.59716143  0.33781772    -0.02850
C477        C  0.32748629  0.57102726  0.10795686    -0.09490
C478        C  0.30647437  0.51860114  0.12203536     0.06710
C479        C  0.24592114  0.51511801  0.10839947    -0.03260
C480        C  0.21094122  0.56155794  0.09458236    -0.07710
C481        C  0.23423506  0.60250608  0.06323324     0.05820
C482        C  0.29332239  0.60908517  0.07588939    -0.02730
Br483      Br  0.33279152  0.64806676  0.02635546    -0.02430
H484        H  0.37217644  0.57852265  0.11374405     0.09730
H485        H  0.16636221  0.55696444  0.08838291     0.07750
Br486      Br  0.21488400  0.45958575  0.06000631    -0.02850
C487        C  0.82477903  0.71468809  0.97612018    -0.09490
C488        C  0.80494610  0.65790602  0.97476210     0.06710
C489        C  0.74663688  0.65545092  0.97347637    -0.03260
C490        C  0.71473310  0.69693867  0.95236262    -0.07710
C491        C  0.72497575  0.75290864  0.97002980     0.05820
C492        C  0.78543101  0.76215936  0.97728456    -0.02730
Br493      Br  0.82141243  0.83343749  0.98499008    -0.02430
H494        H  0.86911044  0.72386956  0.97860729     0.09730
H495        H  0.67325274  0.68172991  0.94299662     0.07750
Br496      Br  0.71108897  0.64512908  0.04205531    -0.02850
C497        C  0.71724278  0.51556416  0.06035281    -0.09490
C498        C  0.73067725  0.52040278  0.11621010     0.06710
C499        C  0.77283187  0.56111117  0.12920279    -0.03260
C500        C  0.80938232  0.58293403  0.08664856    -0.07710
C501        C  0.80241184  0.56786895  0.02837985     0.05820
C502        C  0.75008431  0.53566037  0.01749225    -0.02730
Br503      Br  0.69177895  0.54171974  0.95940348    -0.02430
H504        H  0.68085203  0.49135956  0.04936382     0.09730
H505        H  0.83924318  0.61557244  0.09793838     0.07750
Br506      Br  0.74432571  0.62219186  0.17049094    -0.02850
C507        C  0.97569527  0.76950625  0.76295149    -0.09490
C508        C  0.02274957  0.77866197  0.72848205     0.06710
C509        C  0.07329566  0.77017865  0.75760597    -0.03260
C510        C  0.07743837  0.72181960  0.79006027    -0.07710
C511        C  0.02763125  0.69267686  0.80422222     0.05820
C512        C  0.97909783  0.72842847  0.80459901    -0.02730
Br513      Br  0.94639580  0.75399913  0.87483455    -0.02430
H514        H  0.93848449  0.79573175  0.75935160     0.09730
H515        H  0.11857442  0.70800001  0.80303129     0.07750
Br516      Br  0.11054686  0.83582570  0.78789407    -0.02850
C517        C  0.11072637  0.55641751  0.80922815    -0.09490
C518        C  0.08492555  0.60245997  0.78558869     0.06710
C519        C  0.09667733  0.60675506  0.72571794    -0.03260
C520        C  0.12560016  0.56373194  0.69290986    -0.07710
C521        C  0.14463607  0.51373851  0.71710891     0.05820
C522        C  0.14045182  0.51648591  0.77654616    -0.02730
Br523      Br  0.19190044  0.48449505  0.81890886    -0.02430
H524        H  0.10820394  0.55100268  0.85412286     0.09730
H525        H  0.12779251  0.56708252  0.64766220     0.07750
Br526      Br  0.04362290  0.64443632  0.68210652    -0.02850
C527        C  0.28203845  0.01415126  0.21022624    -0.09490
C528        C  0.31118909  0.96346550  0.19760484     0.06710
C529        C  0.27504820  0.91649244  0.20036905    -0.03260
C530        C  0.22783764  0.91817908  0.23750541    -0.07710
C531        C  0.21810855  0.96580308  0.27188001     0.05820
C532        C  0.23548489  0.01556912  0.24599430    -0.02730
Br533      Br  0.20008946  0.08662950  0.25717449    -0.02430
H534        H  0.29409311  0.05362907  0.19558026     0.09730
H535        H  0.19962691  0.88324141  0.24059462     0.07750
Br536      Br  0.29369837  0.84926917  0.16058951    -0.02850
C537        C  0.41302442  0.10411527  0.26284219    -0.09490
C538        C  0.45605913  0.09054672  0.30380481     0.06710
C539        C  0.46344820  0.03195333  0.30719789    -0.03260
C540        C  0.45056961  0.99495677  0.26184467    -0.07710
C541        C  0.41111962  0.00776310  0.21793357     0.05820
C542        C  0.39684217  0.06496852  0.21816567    -0.02730
Br543      Br  0.37721637  0.09139826  0.14616967    -0.02430
H544        H  0.39997953  0.14646270  0.25605542     0.09730
H545        H  0.46624311  0.95373299  0.26825038     0.07750
Br546      Br  0.46217785  0.99730795  0.37853346    -0.02850
C547        C  0.28811022  0.17086565  0.93781540    -0.09490
C548        C  0.30962155  0.15797981  0.99079567     0.06710
C549        C  0.27033504  0.16934864  0.03394335    -0.03260
C550        C  0.23450157  0.21716375  0.02977429    -0.07710
C551        C  0.23511266  0.25065098  0.98129276     0.05820
C552        C  0.25150035  0.21702990  0.93151311    -0.02730
Br553      Br  0.23686752  0.22467852  0.85201992    -0.02430
H554        H  0.30683142  0.15063089  0.90086127     0.09730
H555        H  0.20562201  0.22705788  0.06370885     0.07750
Br556      Br  0.24839356  0.11197841  0.08443120    -0.02850
C557        C  0.43798247  0.24857397  0.11382834    -0.09490
C558        C  0.49690450  0.23999983  0.10970735     0.06710
C559        C  0.50919094  0.18884981  0.07475097    -0.03260
C560        C  0.46814110  0.16161927  0.04141790    -0.07710
C561        C  0.41032419  0.16873716  0.04834308     0.05820
C562        C  0.39698056  0.20921138  0.09336054    -0.02730
Br563      Br  0.32802743  0.21768109  0.13392900    -0.02430
H564        H  0.42255375  0.28560632  0.13518107     0.09730
H565        H  0.48115563  0.13177474  0.00849388     0.07750
Br566      Br  0.55992663  0.12432576  0.07755858    -0.02850
C567        C  0.27778317  0.75223227  0.95837834    -0.09490
C568        C  0.30327469  0.76550505  0.01115433     0.06710
C569        C  0.26208974  0.76706937  0.05459065    -0.03260
C570        C  0.22495918  0.72070654  0.05541247    -0.07710
C571        C  0.21511616  0.68924395  0.00489079     0.05820
C572        C  0.22818052  0.71996323  0.95656858    -0.02730
Br573      Br  0.16638122  0.76196803  0.92423323    -0.02430
H574        H  0.28729428  0.77665532  0.92226443     0.09730
H575        H  0.20537068  0.70901805  0.09444247     0.07750
Br576      Br  0.21391658  0.83304736  0.05377143    -0.02850
C577        C  0.44915910  0.78017110  0.09016170    -0.09490
C578        C  0.39569371  0.76050687  0.08011510     0.06710
C579        C  0.38292550  0.71703171  0.12059505    -0.03260
C580        C  0.42691176  0.68462722  0.14847028    -0.07710
C581        C  0.48611668  0.69540077  0.14220489     0.05820
C582        C  0.49235181  0.74993431  0.11760594    -0.02730
Br583      Br  0.55407615  0.79584758  0.11753975    -0.02430
H584        H  0.45747361  0.82137804  0.07555986     0.09730
H585        H  0.41378624  0.64845963  0.17119347     0.07750
Br586      Br  0.31250078  0.71113576  0.15956661    -0.02850
C587        C  0.32242492  0.00720854  0.73737667    -0.09490
C588        C  0.31382832  0.99010408  0.79226497     0.06710
C589        C  0.25503865  0.98249685  0.80552311    -0.03260
C590        C  0.21458670  0.98061192  0.76070895    -0.07710
C591        C  0.23256649  0.98129769  0.70369385     0.05820
C592        C  0.29075483  0.98848958  0.69454503    -0.02730
Br593      Br  0.33238892  0.97926006  0.62377594    -0.02430
H594        H  0.36035438  0.02489951  0.72397518     0.09730
H595        H  0.17077194  0.97655180  0.77162149     0.07750
Br596      Br  0.22086869  0.98976207  0.87839732    -0.02850
C597        C  0.38887602  0.08357722  0.79943459    -0.09490
C598        C  0.40940280  0.03088988  0.81786085     0.06710
C599        C  0.46726542  0.02775055  0.81763672    -0.03260
C600        C  0.49592804  0.05674341  0.77708986    -0.07710
C601        C  0.47531890  0.09755092  0.73769388     0.05820
C602        C  0.41926643  0.11594052  0.75914928    -0.02730
Br603      Br  0.37604486  0.18405101  0.75125662    -0.02430
H604        H  0.34576164  0.09540237  0.81030160     0.09730
H605        H  0.53768476  0.05228125  0.78708450     0.07750
Br606      Br  0.50932889  0.02276248  0.88729755    -0.02850
C607        C  0.53681198  0.73634378  0.90802675    -0.09490
C608        C  0.55672697  0.69345273  0.86961663     0.06710
C609        C  0.61353097  0.70769050  0.85433430    -0.03260
C610        C  0.64453586  0.75353566  0.87969816    -0.07710
C611        C  0.62672690  0.77936726  0.93103176     0.05820
C612        C  0.56815289  0.77832037  0.93565026    -0.02730
Br613      Br  0.52751539  0.82220788  0.98856888    -0.02430
H614        H  0.49464429  0.74267630  0.91636421     0.09730
H615        H  0.68791465  0.75977085  0.86673811     0.07750
Br616      Br  0.66001050  0.66468740  0.80904025    -0.02850
C617        C  0.45709031  0.64853648  0.93264644    -0.09490
C618        C  0.45125845  0.65909014  0.87615875     0.06710
C619        C  0.40780080  0.70343767  0.86947918    -0.03260
C620        C  0.39353858  0.74441967  0.91286226    -0.07710
C621        C  0.40361022  0.73681928  0.97059213     0.05820
C622        C  0.43750600  0.68480383  0.97724579    -0.02730
Br623      Br  0.45881716  0.64224392  0.03850861    -0.02430
H624        H  0.48604275  0.61494839  0.94173675     0.09730
H625        H  0.37168267  0.78207840  0.90048735     0.07750
Br626      Br  0.34184308  0.70128259  0.82132170    -0.02850
C627        C  0.70466008  0.35032268  0.91243219    -0.09490
C628        C  0.72502509  0.36498017  0.86068637     0.06710
C629        C  0.77447493  0.33091225  0.84778513    -0.03260
C630        C  0.81512374  0.31523988  0.88991660    -0.07710
C631        C  0.80311780  0.32199911  0.94810102     0.05820
C632        C  0.74378076  0.33808061  0.95630899    -0.02730
Br633      Br  0.72142679  0.40337992  0.99390951    -0.02430
H634        H  0.65994607  0.35958814  0.92022375     0.09730
H635        H  0.85513464  0.29708344  0.87657881     0.07750
Br636      Br  0.78284276  0.29639023  0.77529912    -0.02850
C637        C  0.79045604  0.46109073  0.90782312    -0.09490
C638        C  0.74655701  0.47538565  0.86972722     0.06710
C639        C  0.75101118  0.53233129  0.85201921    -0.03260
C640        C  0.78429930  0.57310234  0.88278454    -0.07710
C641        C  0.82244749  0.55791767  0.92718700     0.05820
C642        C  0.82996092  0.49856232  0.93156898    -0.02730
Br643      Br  0.90225345  0.46226251  0.94373756    -0.02430
H644        H  0.80148197  0.41869535  0.91271187     0.09730
H645        H  0.77808303  0.61660893  0.87261662     0.07750
Br646      Br  0.72010173  0.55427494  0.78229616    -0.02850
C647        C  0.26232746  0.51675115  0.70714838    -0.09490
C648        C  0.23788204  0.46373975  0.70053160     0.06710
C649        C  0.27504012  0.41814141  0.71129647    -0.03260
C650        C  0.32331214  0.42838232  0.74449722    -0.07710
C651        C  0.32862432  0.47888248  0.77563151     0.05820
C652        C  0.30781036  0.52391281  0.74399697    -0.02730
Br653      Br  0.35043740  0.58659122  0.72909069    -0.02430
H654        H  0.24421195  0.55288205  0.68659562     0.09730
H655        H  0.35867250  0.40034268  0.74069447     0.07750
Br656      Br  0.26319998  0.34243721  0.68620735    -0.02850
C657        C  0.28623149  0.55110307  0.96966569    -0.09490
C658        C  0.24214314  0.59015077  0.95553308     0.06710
C659        C  0.24340810  0.60089462  0.89698309    -0.03260
C660        C  0.28295489  0.57399590  0.85905675    -0.07710
C661        C  0.32786622  0.53671578  0.87588025     0.05820
C662        C  0.33345086  0.53831305  0.93540850    -0.02730
Br663      Br  0.40196107  0.52827316  0.97698188    -0.02430
H664        H  0.28835359  0.53127225  0.00906590     0.09730
H665        H  0.27407189  0.58217702  0.81625784     0.07750
Br666      Br  0.18770112  0.64383006  0.86162701    -0.02850
C667        C  0.28344157  0.33473028  0.89915068    -0.09490
C668        C  0.23782888  0.35133707  0.93563287     0.06710
C669        C  0.22360353  0.40845734  0.93050293    -0.03260
C670        C  0.26178001  0.44490363  0.90612475    -0.07710
C671        C  0.30777149  0.43050057  0.86937563     0.05820
C672        C  0.31208217  0.37093010  0.86199739    -0.02730
Br673      Br  0.36662350  0.33270558  0.81732891    -0.02430
H674        H  0.30443492  0.29556684  0.90370119     0.09730
H675        H  0.24606564  0.48597065  0.90877642     0.07750
Br676      Br  0.14942234  0.44198245  0.94270392    -0.02850
C677        C  0.48677489  0.26306396  0.75094142    -0.09490
C678        C  0.53523966  0.26675955  0.78478295     0.06710
C679        C  0.58543779  0.25233237  0.75497342    -0.03260
C680        C  0.58274810  0.20853510  0.71460130    -0.07710
C681        C  0.53036043  0.18398882  0.70347877     0.05820
C682        C  0.48554843  0.22373442  0.70643626    -0.02730
Br683      Br  0.43555815  0.24094136  0.64472683    -0.02430
H684        H  0.45083132  0.28960740  0.75888434     0.09730
H685        H  0.62037905  0.19408180  0.69256181     0.07750
Br686      Br  0.63711757  0.30965003  0.73566703    -0.02850
C687        C  0.63555193  0.25092545  0.86773787    -0.09490
C688        C  0.58135810  0.26634166  0.88710782     0.06710
C689        C  0.57037538  0.24595985  0.94038341    -0.03260
C690        C  0.59683678  0.19640993  0.95820817    -0.07710
C691        C  0.65275017  0.18015960  0.94281607     0.05820
C692        C  0.67124186  0.21040146  0.89361981    -0.02730
Br693      Br  0.73109374  0.19316887  0.84135092    -0.02430
H694        H  0.65235522  0.27225435  0.83322430     0.09730
H695        H  0.57824648  0.17793089  0.99249567     0.07750
Br696      Br  0.51979257  0.28625480  0.98944327    -0.02850
C697        C  0.43244156  0.26839630  0.90384183    -0.09490
C698        C  0.47677258  0.24626837  0.87131604     0.06710
C699        C  0.47959160  0.18602770  0.87268704    -0.03260
C700        C  0.44232076  0.15226258  0.90515468    -0.07710
C701        C  0.40427959  0.17535465  0.94404551     0.05820
C702        C  0.40057230  0.23484951  0.94086510    -0.02730
Br703      Br  0.36476243  0.27361603  0.99822035    -0.02430
H704        H  0.43059498  0.31331962  0.90949688     0.10930
H705        H  0.44727268  0.10817445  0.90586935     0.07750
Br706      Br  0.54480061  0.14944730  0.84664725    -0.02850
C707        C  0.78577059  0.81771805  0.42117247    -0.09490
C708        C  0.73231450  0.83113725  0.44950603     0.06710
C709        C  0.71208665  0.87967352  0.42802111    -0.03260
C710        C  0.75337243  0.92254786  0.42427594    -0.07710
C711        C  0.80243448  0.91661530  0.39086336     0.05820
C712        C  0.81688419  0.85901257  0.38699689    -0.02730
Br713      Br  0.87164364  0.84336871  0.32968848    -0.02430
H714        H  0.80078502  0.77711474  0.42590838     0.09730
H715        H  0.75032118  0.95782320  0.45246160     0.07750
Br716      Br  0.68210789  0.84627074  0.36076160    -0.02850
C717        C  0.77943247  0.83061658  0.59765622    -0.09490
C718        C  0.73864696  0.84666091  0.55458827     0.06710
C719        C  0.74254352  0.90362226  0.54441666    -0.03260
C720        C  0.79548649  0.93212653  0.55133995    -0.07710
C721        C  0.82706821  0.92434409  0.60122815     0.05820
C722        C  0.82158929  0.86831090  0.62091738    -0.02730
Br723      Br  0.85744672  0.84888179  0.69069275    -0.02430
H724        H  0.78145072  0.79031770  0.61601925     0.09730
H725        H  0.80291628  0.97019361  0.52930700     0.07750
Br726      Br  0.67105666  0.94093972  0.53203136    -0.02850
C727        C  0.54652248  0.70228596  0.69549996    -0.09490
C728        C  0.50005289  0.73873762  0.69609344     0.06710
C729        C  0.45003036  0.71164045  0.71179593    -0.03260
C730        C  0.45489249  0.67135148  0.75367870    -0.07710
C731        C  0.50680585  0.65816945  0.77711975     0.05820
C732        C  0.55090036  0.66057509  0.73644600    -0.02730
Br733      Br  0.59287763  0.59523530  0.71073985    -0.02430
H734        H  0.57462692  0.70233288  0.65978013     0.09730
H735        H  0.42019725  0.65218374  0.77103817     0.07750
Br736      Br  0.37864620  0.72570819  0.67648021    -0.02850
C737        C  0.53944295  0.87667061  0.76283278    -0.09490
C738        C  0.55531536  0.82919412  0.72850024     0.06710
C739        C  0.61042975  0.80686071  0.74694529    -0.03260
C740        C  0.64496199  0.83898551  0.78652542    -0.07710
C741        C  0.62552643  0.89055371  0.81099044     0.05820
C742        C  0.56809771  0.89579447  0.80983605    -0.02730
Br743      Br  0.52817695  0.89513970  0.87761436    -0.02430
H744        H  0.50491798  0.90326922  0.75454000     0.09730
H745        H  0.68951834  0.82857935  0.79054683     0.07750
Br746      Br  0.65868114  0.75500685  0.70550920    -0.02850
C747        C  0.40123147  0.87052992  0.79993447    -0.09490
C748        C  0.39793214  0.92553962  0.78090025     0.06710
C749        C  0.41222185  0.92772134  0.72074928    -0.03260
C750        C  0.42525164  0.87972558  0.68622379    -0.07710
C751        C  0.44758001  0.83217605  0.71065488     0.05820
C752        C  0.43049529  0.82780499  0.76853898    -0.02730
Br753      Br  0.47386345  0.78622866  0.81606794    -0.02430
H754        H  0.39022159  0.86284039  0.84317520     0.09730
H755        H  0.43302227  0.88495463  0.64189301     0.07750
Br756      Br  0.44968324  0.98585946  0.68362040    -0.02850
C757        C  0.58261794  0.73192724  0.29668189    -0.09490
C758        C  0.52928882  0.75579371  0.30240969     0.06710
C759        C  0.48342111  0.71933795  0.28715827    -0.03260
C760        C  0.49520444  0.66980544  0.25649879    -0.07710
C761        C  0.54564663  0.66640139  0.22575073     0.05820
C762        C  0.59197815  0.69028708  0.25556331    -0.02730
Br763      Br  0.66194691  0.65503961  0.26728152    -0.02430
H764        H  0.61830078  0.75144472  0.31735173     0.09730
H765        H  0.46113446  0.64157411  0.24640204     0.07750
Br766      Br  0.40401409  0.73440046  0.29350192    -0.02850
C767        C  0.60884806  0.84114833  0.24795084    -0.09490
C768        C  0.57523380  0.85613262  0.29727811     0.06710
C769        C  0.57409021  0.91440162  0.30806501    -0.03260
C770        C  0.58999986  0.95254787  0.26631421    -0.07710
C771        C  0.62692302  0.93860103  0.21966808     0.05820
C772        C  0.63306511  0.88106436  0.21178887    -0.02730
Br773      Br  0.66537685  0.85852662  0.14389486    -0.02430
H774        H  0.61182910  0.79913305  0.23127532     0.09730
H775        H  0.58108716  0.99436647  0.27910079     0.07750
Br776      Br  0.57919367  0.94314983  0.38459205    -0.02850
C777        C  0.38416427  0.88069864  0.25637455    -0.09490
C778        C  0.40304169  0.90254557  0.20392750     0.06710
C779        C  0.45788427  0.88257169  0.18948505    -0.03260
C780        C  0.48425159  0.84273793  0.22399544    -0.07710
C781        C  0.47549415  0.84143646  0.28231399     0.05820
C782        C  0.42306965  0.86144056  0.29726550    -0.02730
Br783      Br  0.40734904  0.86508253  0.37189214    -0.02430
H784        H  0.34177029  0.88546806  0.27040643     0.09730
H785        H  0.51931365  0.82049160  0.21018205     0.07750
Br786      Br  0.51004464  0.92358288  0.14510970    -0.02850
C787        C  0.27067061  0.66429846  0.47023507    -0.09490
C788        C  0.22767250  0.67024137  0.51188926     0.06710
C789        C  0.23624143  0.71400130  0.55060585    -0.03260
C790        C  0.28863305  0.73648122  0.55703414    -0.07710
C791        C  0.31422290  0.75202485  0.50706030     0.05820
C792        C  0.31316652  0.70668868  0.46642131    -0.02730
Br793      Br  0.37496760  0.69129252  0.41785071    -0.02430
H794        H  0.26874684  0.63070691  0.43884666     0.09730
H795        H  0.29589470  0.75687840  0.59664643     0.07750
Br796      Br  0.18027091  0.77071761  0.55175598    -0.02850
C797        C  0.30500262  0.85510339  0.60341590    -0.09490
C798        C  0.29336947  0.85160632  0.54507187     0.06710
C799        C  0.23649658  0.87386719  0.53109973    -0.03260
C800        C  0.20296729  0.90256681  0.57010200    -0.07710
C801        C  0.22038949  0.91592045  0.62328220     0.05820
C802        C  0.26545644  0.87933134  0.64272712    -0.02730
Br803      Br  0.27755971  0.86014716  0.72015630    -0.02430
H804        H  0.34279111  0.83477613  0.61902052     0.09730
H805        H  0.16059506  0.91343959  0.55902912     0.07750
Br806      Br  0.18429656  0.86074629  0.46801757    -0.02850
C807        C  0.28791644  0.81975045  0.39731567    -0.09490
C808        C  0.31411432  0.84486766  0.44539372     0.06710
C809        C  0.31201303  0.90415815  0.44511130    -0.03260
C810        C  0.26693215  0.92951323  0.41830860    -0.07710
C811        C  0.24151824  0.91143253  0.36750855     0.05820
C812        C  0.26073309  0.85295970  0.35456882    -0.02730
Br813      Br  0.25717577  0.80551418  0.28767158    -0.02430
H814        H  0.29145017  0.77512400  0.39050447     0.09730
H815        H  0.24572952  0.96083303  0.44170448     0.07750
Br816      Br  0.35875820  0.95312912  0.48955763    -0.02850
C817        C  0.76044998  0.66036225  0.47537976    -0.09490
C818        C  0.79871448  0.66393831  0.51989636     0.06710
C819        C  0.77152323  0.68134434  0.57030666    -0.03260
C820        C  0.72878202  0.72234337  0.56646696    -0.07710
C821        C  0.71935359  0.74601322  0.51393050     0.05820
C822        C  0.72171594  0.70542540  0.46979146    -0.02730
Br823      Br  0.66820635  0.70433728  0.40990773    -0.02430
H824        H  0.76320193  0.62613585  0.44476579     0.09730
H825        H  0.70747603  0.73857376  0.60334976     0.07750
Br826      Br  0.77595156  0.63655676  0.63560561    -0.02850
C827        C  0.94845483  0.70334261  0.47354967    -0.09490
C828        C  0.89327684  0.68345553  0.46214627     0.06710
C829        C  0.87097234  0.70637484  0.41104315    -0.03260
C830        C  0.90594975  0.73967193  0.37735140    -0.07710
C831        C  0.95745320  0.76308850  0.39628974     0.05820
C832        C  0.96883436  0.75394929  0.45234113    -0.02730
Br833      Br  0.02104215  0.80264459  0.49217597    -0.02430
H834        H  0.97124304  0.68307076  0.50426676     0.09730
H835        H  0.89601951  0.73997390  0.33293118     0.07750
Br836      Br  0.80566525  0.68710952  0.36778548    -0.02850
C837        C  0.91718380  0.67060563  0.61482043    -0.09490
C838        C  0.88928349  0.69173644  0.56728297     0.06710
C839        C  0.89173795  0.75332526  0.56616342    -0.03260
C840        C  0.92822068  0.78596622  0.60058584    -0.07710
C841        C  0.95737087  0.76354711  0.64532583     0.05820
C842        C  0.93617677  0.70870555  0.65860250    -0.02730
Br843      Br  0.87174134  0.71407512  0.70700311    -0.02430
H844        H  0.91460647  0.62628329  0.62246258     0.09730
H845        H  0.93644500  0.82890880  0.59013529     0.07750
Br846      Br  0.86525853  0.80134587  0.51079357    -0.02850
C847        C  0.76943622  0.46211044  0.68360450    -0.09490
C848        C  0.82452076  0.47493510  0.70615246     0.06710
C849        C  0.82805812  0.46912629  0.76392112    -0.03260
C850        C  0.80029694  0.42555425  0.78407609    -0.07710
C851        C  0.74144023  0.42681420  0.77666830     0.05820
C852        C  0.72577487  0.44212994  0.71992248    -0.02730
Br853      Br  0.65231217  0.43931641  0.68566313    -0.02430
H854        H  0.75785967  0.46954390  0.64069922     0.09730
H855        H  0.82126502  0.41005564  0.82041437     0.07750
Br856      Br  0.87610729  0.50461397  0.81760177    -0.02850
C857        C  0.95496073  0.43590356  0.75293623    -0.09490
C858        C  0.91718169  0.42337788  0.70879234     0.06710
C859        C  0.89957705  0.36676397  0.71317406    -0.03260
C860        C  0.92499807  0.32874781  0.75360873    -0.07710
C861        C  0.96512439  0.34694657  0.79762911     0.05820
C862        C  0.97163875  0.40498541  0.79866899    -0.02730
Br863      Br  0.02054719  0.44709434  0.84973475    -0.02430
H864        H  0.96076564  0.47525710  0.76525193     0.09730
H865        H  0.91341572  0.28588325  0.74663934     0.07750
Br866      Br  0.84004176  0.34164245  0.66472231    -0.02850
C867        C  0.88797905  0.57887177  0.72468058    -0.09490
C868        C  0.91238223  0.53370460  0.69105625     0.06710
C869        C  0.97091413  0.53578744  0.68894106    -0.03260
C870        C  0.99763124  0.55257278  0.73815194    -0.07710
C871        C  0.97913379  0.59512701  0.77648694     0.05820
C872        C  0.92091938  0.60873758  0.76769174    -0.02730
Br873      Br  0.87906706  0.64662708  0.82580724    -0.02430
H874        H  0.84243654  0.58348103  0.72619210     0.09730
H875        H  0.03334610  0.52646329  0.74717670     0.07750
Br876      Br  0.01886697  0.49150158  0.64094343    -0.02850
C877        C  0.76566178  0.50597680  0.29907414    -0.09490
C878        C  0.79903558  0.45731253  0.30321537     0.06710
C879        C  0.76865066  0.40813879  0.28137153    -0.03260
C880        C  0.72806362  0.41516844  0.23924471    -0.07710
C881        C  0.72454175  0.46668215  0.21365353     0.05820
C882        C  0.72439754  0.51033930  0.25543033    -0.02730
Br883      Br  0.65293681  0.52526398  0.29114229    -0.02430
H884        H  0.76780134  0.53719491  0.33290800     0.09730
H885        H  0.70588821  0.37961209  0.22196917     0.07750
Br886      Br  0.78287626  0.32968271  0.28449761    -0.02850
C887        C  0.91593029  0.35509678  0.19703909    -0.09490
C888        C  0.95860930  0.32468505  0.22230623     0.06710
C889        C  0.95482210  0.32409785  0.28389432    -0.03260
C890        C  0.92518667  0.36672818  0.31485149    -0.07710
C891        C  0.89121248  0.40557323  0.28842213     0.05820
C892        C  0.88544735  0.39534437  0.22973749    -0.02730
Br893      Br  0.84774381  0.44775664  0.19204816    -0.02430
H894        H  0.91238192  0.35447872  0.15155075     0.09730
H895        H  0.93261023  0.37208353  0.35946834     0.07750
Br896      Br  0.01096478  0.28963419  0.32922375    -0.02850
C897        C  0.95803222  0.49928410  0.27122482    -0.09490
C898        C  0.90099775  0.51139777  0.28331811     0.06710
C899        C  0.88236340  0.55740410  0.24807642    -0.03260
C900        C  0.91739977  0.58257252  0.20563268    -0.07710
C901        C  0.97236736  0.56192396  0.19229326     0.05820
C902        C  0.98298229  0.51145483  0.21859194    -0.02730
Br903      Br  0.98000066  0.45500965  0.16174622    -0.02430
H904        H  0.97859516  0.47124946  0.29806700     0.09730
H905        H  0.90451911  0.62216468  0.18782385     0.07750
Br906      Br  0.82542742  0.60657186  0.26893681    -0.02850
C907        C  0.72122100  0.23943129  0.51408389    -0.09490
C908        C  0.73519434  0.18235898  0.50440804     0.06710
C909        C  0.79362015  0.16840229  0.50063413    -0.03260
C910        C  0.82761640  0.20768782  0.48381824    -0.07710
C911        C  0.82305844  0.26317355  0.50369505     0.05820
C912        C  0.76609242  0.27899216  0.52151527    -0.02730
Br913      Br  0.74233243  0.34691023  0.55986419    -0.02430
H914        H  0.67786333  0.25159080  0.52292220     0.09730
H915        H  0.86147371  0.18801863  0.46194363     0.07750
Br916      Br  0.83252680  0.09425406  0.50046159    -0.02850
C917        C  0.88545299  0.21549698  0.59477585    -0.09490
C918        C  0.90205570  0.26953600  0.57514394     0.06710
C919        C  0.95075669  0.28874589  0.60293997    -0.03260
C920        C  0.98460867  0.25342255  0.63673769    -0.07710
C921        C  0.97767138  0.19427159  0.63721403     0.05820
C922        C  0.92549059  0.17676060  0.61660369    -0.02730
Br923      Br  0.91512959  0.10078705  0.60299441    -0.02430
H924        H  0.84478496  0.19905505  0.58587332     0.09730
H925        H  0.02293858  0.26974295  0.65445769     0.07750
Br926      Br  0.96829393  0.36421619  0.60056245    -0.02850
C927        C  0.93475200  0.21183974  0.37494682    -0.09490
C928        C  0.97714355  0.17039451  0.39058532     0.06710
C929        C  0.97897829  0.16697625  0.44969672    -0.03260
C930        C  0.95754360  0.21037748  0.48524249    -0.07710
C931        C  0.92602546  0.25866257  0.46921106     0.05820
C932        C  0.91398882  0.25608426  0.41156674    -0.02730
Br933      Br  0.85232851  0.29969828  0.38768533    -0.02430
H934        H  0.91830180  0.21729730  0.33392713     0.09730
H935        H  0.96050467  0.20183850  0.52714685     0.07750
Br936      Br  0.99036942  0.09796710  0.48769422    -0.02850
loop_ 
_geom_bond_atom_site_label_1 
_geom_bond_atom_site_label_2 
_geom_bond_distance 
_geom_bond_site_symmetry_2 
_ccdc_geom_bond_type 
C1           C18   1.649       .  S
C1          C911   1.588       .  S
C1          C918   1.620       .  S
C1          C931   1.633       .  S
C2           C15   1.625       .  S
C2          C878   1.606       .  S
C2          C891   1.605       .  S
C2          C898   1.674       .  S
C3           C16   1.606       .  S
C3          C848   1.555       .  S
C3          C858   1.670       .  S
C3          C868   1.596       .  S
C4           C17   1.651       .  S
C4          C818   1.558       .  S
C4          C828   1.609       .  S
C4          C838   1.651       .  S
O5          Ni13   1.993       .  S
O5           C15   1.298       .  A
O6          Ni13   1.959       .  S
O6           C16   1.282       .  A
O7          Ni13   2.004       .  S
O7           C17   1.303       .  A
O8          Ni13   1.988       .  S
O8           C18   1.290       .  A
O9          Ni14   2.018       .  S
O9           C18   1.300       .  A
O10         Ni14   2.027       .  S
O10          C17   1.298       .  A
O11         Ni14   1.965       .  S
O11          C16   1.286       .  A
O12         Ni14   2.006       .  S
O12          C15   1.295       .  A
Ni13        Ni14   2.337       .  S
C19          C35   1.654       .  S
C19         C791   1.591       .  S
C19         C798   1.640       .  S
C19         C808   1.575       .  S
C20          C33   1.672       .  S
C20         C758   1.546       .  S
C20         C768   1.625       .  S
C20         C781   1.593       .  S
C21          C34   1.635       .  S
C21         C728   1.562       .  S
C21         C738   1.652       .  S
C21         C751   1.629       .  S
C22          C36   1.678       .  S
C22         C708   1.633       .  S
C22         C718   1.646       .  S
C22         C821   1.541       .  S
O23         Ni31   2.021       .  S
O23          C33   1.302       .  A
O24         Ni31   1.987       .  S
O24          C34   1.298       .  A
O25         Ni31   2.019       .  S
O25          C35   1.304       .  A
O26         Ni31   2.020       .  S
O26          C36   1.302       .  A
O27         Ni32   2.009       .  S
O27          C36   1.294       .  A
O28         Ni32   2.010       .  S
O28          C35   1.294       .  A
O29         Ni32   2.016       .  S
O29          C34   1.298       .  A
O30         Ni32   2.008       .  S
O30          C33   1.295       .  A
Ni31        Ni32   2.327       .  S
C37          C51   1.603       .  S
C37         C678   1.563       .  S
C37         C688   1.598       .  S
C37         C698   1.642       .  S
C38          C54   1.636       .  S
C38         C651   1.604       .  S
C38         C661   1.636       .  S
C38         C671   1.645       .  S
C39          C53   1.666       .  S
C39         C628   1.646       .  S
C39         C638   1.627       .  S
C39         C851   1.588       .  S
C40          C52   1.683       .  S
C40         C608   1.679       .  S
C40         C618   1.676       .  S
C40         C731   1.578       .  S
O41         Ni49   1.985       .  S
O41          C51   1.302       .  A
O42         Ni49   2.019       .  S
O42          C52   1.304       .  A
O43         Ni49   2.007       .  S
O43          C53   1.290       .  A
O44         Ni49   1.979       .  S
O44          C54   1.288       .  A
O45         Ni50   2.017       .  S
O45          C54   1.298       .  A
O46         Ni50   2.042       .  S
O46          C53   1.309       .  A
O47         Ni50   2.033       .  S
O47          C52   1.301       .  A
O48         Ni50   1.974       .  S
O48          C51   1.285       .  A
Ni49        Ni50   2.335       .  S
C55          C69   1.624       .  S
C55         C588   1.583       .  S
C55         C598   1.586   1_565  S
C55         C748   1.647       .  S
C56          C72   1.671       .  S
C56         C568   1.598       .  S
C56         C578   1.652       .  S
C56         C621   1.676   1_554  S
C57          C71   1.643       .  S
C57         C548   1.581       .  S
C57         C561   1.622   1_556  S
C57         C701   1.649       .  S
C58          C70   1.629       .  S
C58         C528   1.598       .  S
C58         C541   1.640   1_565  S
C58         C778   1.600       .  S
O59         Ni67   1.986   1_556  S
O59          C69   1.283       .  A
O60         Ni67   1.985       .  S
O60          C70   1.296       .  A
O61         Ni67   2.000   1_546  S
O61          C71   1.301       .  A
O62         Ni67   2.011       .  S
O62          C72   1.302       .  A
O63         Ni68   2.023   1_554  S
O63          C72   1.297       .  A
O64         Ni68   2.019   1_545  S
O64          C71   1.298       .  A
O65         Ni68   1.985   1_554  S
O65          C70   1.289       .  A
O66         Ni68   1.988       .  S
O66          C69   1.290       .  A
Ni67        Ni68   2.332   1_554  S
C73          C87   1.627       .  S
C73         C511   1.586       .  S
C73         C518   1.616       .  S
C73         C871   1.630   1_455  S
C74          C90   1.663       .  S
C74         C488   1.602       .  S
C74         C501   1.611   1_556  S
C74         C641   1.602       .  S
C75          C89   1.652   1_554  S
C75         C481   1.634       .  S
C75         C571   1.587       .  S
C75         C658   1.652   1_554  S
C76          C88   1.608       .  S
C76         C458   1.570       .  S
C76         C471   1.619       .  S
C76         C901   1.636   1_455  S
O77         Ni85   1.977       .  S
O77          C87   1.292       .  A
O78         Ni85   1.982   1_554  S
O78          C88   1.287       .  A
O79         Ni85   2.013   1_554  S
O79          C89   1.305   1_554  A
O80         Ni85   2.025   1_655  S
O80          C90   1.300       .  A
O81         Ni86   2.005   1_655  S
O81          C90   1.290       .  A
O82         Ni86   2.027       .  S
O82          C89   1.299       .  A
O83         Ni86   1.980   1_554  S
O83          C88   1.291       .  A
O84         Ni86   2.010       .  S
O84          C87   1.297       .  A
Ni85        Ni86   2.335       .  S
C91         C107   1.649       .  S
C91         C451   1.646   1_556  S
C91         C491   1.625       .  S
C91         C611   1.615       .  S
C92         C105   1.659       .  S
C92         C428   1.566       .  S
C92         C441   1.643       .  S
C92         C741   1.583       .  S
C93         C108   1.651       .  S
C93         C408   1.559       .  S
C93         C418   1.630   1_556  S
C93         C691   1.642       .  S
C94         C106   1.677       .  S
C94         C391   1.593       .  S
C94         C401   1.608   1_565  S
C94         C771   1.643       .  S
O95        Ni103   2.041   1_556  S
O95         C105   1.308       .  A
O96        Ni103   2.048       .  S
O96         C106   1.315       .  A
O97        Ni103   1.979       .  S
O97         C107   1.278   1_554  A
O98        Ni103   1.979   1_546  S
O98         C108   1.295       .  A
O99        Ni104   2.038   1_546  S
O99         C108   1.304       .  A
O100       Ni104   2.032       .  S
O100        C107   1.307   1_554  A
O101       Ni104   2.015       .  S
O101        C106   1.294       .  A
O102       Ni104   1.990   1_556  S
O102        C105   1.289       .  A
Ni103      Ni104   2.332       .  S
C109        C125   1.638       .  S
C109        C368   1.607       .  S
C109        C381   1.602       .  S
C109        C478   1.677       .  S
C110        C123   1.701       .  S
C110        C358   1.601       .  S
C110        C421   1.626       .  S
C110        C558   1.656       .  S
C111        C124   1.687       .  S
C111        C448   1.636       .  S
C111        C581   1.673       .  S
C111        C761   1.578       .  S
C112        C126   1.666       .  S
C112        C348   1.676       .  S
C112        C498   1.570       .  S
C112        C881   1.576       .  S
O113       Ni121   2.035       .  S
O113        C123   1.306       .  A
O114       Ni121   2.035       .  S
O114        C124   1.305       .  A
O115       Ni121   2.017       .  S
O115        C125   1.300       .  A
O116       Ni121   1.984       .  S
O116        C126   1.293       .  A
O117       Ni122   2.023       .  S
O117        C126   1.299       .  A
O118       Ni122   1.981       .  S
O118        C125   1.290       .  A
O119       Ni122   2.033       .  S
O119        C124   1.297       .  A
O120       Ni122   2.056       .  S
O120        C123   1.305       .  A
Ni121      Ni122   2.322       .  S
C127        C143   1.672       .  S
C127        C351   1.606   1_556  S
C127        C411   1.534       .  S
C127        C631   1.655       .  S
C128        C141   1.664       .  S
C128        C328   1.541       .  S
C128        C338   1.630       .  S
C128        C861   1.616   1_455  S
C129        C144   1.735   1_556  S
C129        C378   1.679   1_556  S
C129        C551   1.615       .  S
C129        C668   1.600       .  S
C130        C142   1.674       .  S
C130        C311   1.601       .  S
C130        C318   1.652       .  S
C130        C888   1.608   1_455  S
O131       Ni139   1.987   1_556  S
O131        C141   1.296       .  A
O132       Ni139   2.037       .  S
O132        C142   1.307       .  A
O133       Ni139   2.000   1_656  S
O133        C143   1.298       .  A
O134       Ni139   2.062       .  S
O134        C144   1.313       .  A
O135       Ni140   2.077       .  S
O135        C144   1.310       .  A
O136       Ni140   2.029   1_655  S
O136        C143   1.304   1_554  A
O137       Ni140   2.037       .  S
O137        C142   1.301       .  A
O138       Ni140   2.015   1_556  S
O138        C141   1.296       .  A
Ni139      Ni140   2.323       .  S
C145        C162   1.622       .  S
C145        C298   1.656   1_565  S
C145        C431   1.602       .  S
C145        C721   1.649       .  S
C146        C160   1.669       .  S
C146        C288   1.680       .  S
C146        C508   1.572       .  S
C146        C841   1.629   1_455  S
C147        C159   1.650       .  S
C147        C278   1.655       .  S
C147        C331   1.555       .  S
C147        C921   1.612   1_455  S
C148        C161   1.589       .  S
C148        C268   1.641   1_565  S
C148        C591   1.527       .  S
C148        C801   1.605       .  S
O149       Ni157   1.990   1_545  S
O149        C159   1.297       .  A
O150       Ni157   2.003       .  S
O150        C160   1.299       .  A
O151       Ni157   1.986       .  S
O151        C161   1.291       .  A
O152       Ni157   2.009   1_655  S
O152        C162   1.298       .  A
O153       Ni158   1.984   1_655  S
O153        C162   1.292       .  A
O154       Ni158   1.919       .  S
O154        C161   1.276       .  A
O155       Ni158   2.052       .  S
O155        C160   1.309       .  A
O156       Ni158   2.035   1_545  S
O156        C159   1.305       .  A
Ni157      Ni158   2.340       .  S
C163        C179   1.627       .  S
C163        C248   1.538       .  S
C163        C261   1.635       .  S
C163        C281   1.610       .  S
C164        C177   1.628       .  S
C164        C321   1.608       .  S
C164        C371   1.576       .  S
C164        C468   1.660       .  S
C165        C178   1.644       .  S
C165        C341   1.641       .  S
C165        C521   1.626       .  S
C165        C648   1.543       .  S
C166        C180   1.592       .  S
C166        C238   1.626       .  S
C166        C291   1.632       .  S
C166        C788   1.558       .  S
O167       Ni175   2.013       .  S
O167        C177   1.297       .  A
O168       Ni175   2.021       .  S
O168        C178   1.306       .  A
O169       Ni175   1.983       .  S
O169        C179   1.299       .  A
O170       Ni175   1.994       .  S
O170        C180   1.294       .  A
O171       Ni176   1.941       .  S
O171        C180   1.279       .  A
O172       Ni176   1.991       .  S
O172        C179   1.290       .  A
O173       Ni176   1.980       .  S
O173        C178   1.287       .  A
O174       Ni176   1.968       .  S
O174        C177   1.280       .  A
Ni175      Ni176   2.337       .  S
C181        C198   1.649       .  S
C181        C228   1.629       .  S
C181        C251   1.554       .  S
C181        C271   1.630       .  S
C182        C195   1.633       .  S
C182        C361   1.593       .  S
C182        C398   1.606       .  S
C182        C538   1.642       .  S
C183        C196   1.678       .  S
C183        C438   1.644       .  S
C183        C601   1.703       .  S
C183        C681   1.550       .  S
C184        C197   1.634       .  S
C184        C221   1.662       .  S
C184        C301   1.611       .  S
C184        C908   1.512       .  S
O185       Ni193   2.007       .  S
O185        C195   1.298       .  A
O186       Ni193   2.021       .  S
O186        C196   1.306       .  A
O187       Ni193   2.011       .  S
O187        C197   1.293       .  A
O188       Ni193   2.008       .  S
O188        C198   1.305       .  A
O189       Ni194   2.018       .  S
O189        C198   1.295       .  A
O190       Ni194   2.013       .  S
O190        C197   1.305       .  A
O191       Ni194   2.025       .  S
O191        C196   1.290       .  A
O192       Ni194   1.997       .  S
O192        C195   1.289       .  A
Ni193      Ni194   2.326       .  S
C199        C214   1.678       .  S
C199        C241   1.629       .  S
C199        C461   1.591   1_455  S
C199        C831   1.569   1_455  S
C200        C216   1.701       .  S
C200        C218   1.660   1_565  S
C200        C388   1.592       .  S
C200        C711   1.656       .  S
C201        C215   1.679       .  S
C201        C231   1.673   1_565  S
C201        C531   1.581       .  S
C201        C811   1.672       .  S
C202        C213   1.638       .  S
C202        C258   1.641       .  S
C202        C308   1.587       .  S
C202        C928   1.654   1_455  S
O203       Ni211   1.977   1_545  S
O203        C213   1.283       .  A
O204       Ni211   2.018       .  S
O204        C214   1.301       .  A
O205       Ni211   2.051       .  S
O205        C215   1.305       .  A
O206       Ni211   2.082   1_655  S
O206        C216   1.313       .  A
O207       Ni212   2.027   1_655  S
O207        C216   1.306       .  A
O208       Ni212   2.036       .  S
O208        C215   1.307       .  A
O209       Ni212   2.042       .  S
O209        C214   1.305       .  A
O210       Ni212   2.004   1_545  S
O210        C213   1.298       .  A
Ni211      Ni212   2.327       .  S
C217        C218   1.418       .  A
C217        C222   1.461       .  A
C217        H224   1.080       .  S
C218        C219   1.433       .  A
C219        C220   1.413       .  A
C219       Br226   1.798   1_545  S
C220        C221   1.382       .  A
C220        H225   1.080       .  S
C221        C222   1.477       .  A
C222       Br223   1.914       .  S
C227        C228   1.368       .  A
C227        C232   1.416       .  A
C227        H234   1.064       .  S
C228        C229   1.448       .  A
C229        C230   1.456       .  A
C229       Br236   1.877       .  S
C230        C231   1.407       .  A
C230        H235   1.074       .  S
C231        C232   1.443       .  A
C232       Br233   1.785   1_545  S
C237        C238   1.463       .  A
C237        C242   1.455       .  A
C237        H244   1.077       .  S
C238        C239   1.404       .  A
C239        C240   1.372       .  A
C239       Br246   1.917       .  S
C240        C241   1.400       .  A
C240        H245   1.016       .  S
C241        C242   1.386       .  A
C242       Br243   1.877       .  S
C247        C248   1.406       .  A
C247        C252   1.410       .  A
C247        H254   1.083       .  S
C248        C249   1.385       .  A
C249        C250   1.387       .  A
C249       Br256   1.919       .  S
C250        C251   1.415       .  A
C250        H255   1.060       .  S
C251        C252   1.422       .  A
C252       Br253   1.909       .  S
C257        C258   1.403       .  A
C257        C262   1.422       .  A
C257        H264   1.076       .  S
C258        C259   1.444       .  A
C259        C260   1.437       .  A
C259       Br266   1.875       .  S
C260        C261   1.400       .  A
C260        H265   1.083       .  S
C261        C262   1.443       .  A
C262       Br263   1.885       .  S
C267        C268   1.451       .  A
C267        C272   1.446       .  A
C267        H274   1.080       .  S
C268        C269   1.404       .  A
C269        C270   1.400       .  A
C269       Br276   1.930       .  S
C270        C271   1.413       .  A
C270        H275   1.021       .  S
C271        C272   1.410       .  A
C272       Br273   1.903       .  S
C277        C278   1.414       .  A
C277        C282   1.413       .  A
C277        H284   1.041       .  S
C278        C279   1.459       .  A
C279        C280   1.445       .  A
C279       Br286   1.916       .  S
C280        C281   1.430       .  A
C280        H285   1.068       .  S
C281        C282   1.392       .  A
C282       Br283   1.923       .  S
C287        C288   1.427       .  A
C287        C292   1.415       .  A
C287        H294   1.030       .  S
C288        C289   1.477       .  A
C289        C290   1.467       .  A
C289       Br296   1.911       .  S
C290        C291   1.436       .  A
C290        H295   1.083       .  S
C291        C292   1.376       .  A
C292       Br293   1.918       .  S
C297        C298   1.454       .  A
C297        C302   1.482       .  A
C297        H304   1.071       .  S
C298        C299   1.400       .  A
C299        C300   1.387       .  A
C299       Br306   1.884       .  S
C300        C301   1.354       .  A
C300        H305   1.062       .  S
C301        C302   1.491       .  A
C302       Br303   1.919       .  S
C307        C308   1.374   1_655  A
C307        C312   1.399       .  A
C307        H314   1.070       .  S
C308        C309   1.418       .  A
C309        C310   1.427       .  A
C309       Br316   1.916       .  S
C310        C311   1.409       .  A
C310        H315   1.075       .  S
C311        C312   1.458   1_455  A
C312       Br313   1.917       .  S
C317        C318   1.422       .  A
C317        C322   1.401       .  A
C317        H324   1.045       .  S
C318        C319   1.414       .  A
C319        C320   1.462       .  A
C319       Br326   1.887       .  S
C320        C321   1.435       .  A
C320        H325   1.069       .  S
C321        C322   1.392       .  A
C322       Br323   1.917       .  S
C327        C328   1.378   1_655  A
C327        C332   1.391       .  A
C327        H334   1.084       .  S
C328        C329   1.421       .  A
C329        C330   1.399       .  A
C329       Br336   1.919       .  S
C330        C331   1.381       .  A
C330        H335   1.078       .  S
C331        C332   1.444   1_455  A
C332       Br333   1.891       .  S
C337        C338   1.422       .  A
C337        C342   1.414       .  A
C337        H344   1.062       .  S
C338        C339   1.380       .  A
C339        C340   1.427       .  A
C339       Br346   1.815       .  S
C340        C341   1.440       .  A
C340        H345   1.075       .  S
C341        C342   1.387       .  A
C342       Br343   1.827       .  S
C347        C348   1.418       .  A
C347        C352   1.439       .  A
C347        H354   1.077       .  S
C348        C349   1.503       .  A
C349        C350   1.385       .  A
C349       Br356   1.971       .  S
C350        C351   1.363       .  A
C350        H355   1.069       .  S
C351        C352   1.450       .  A
C352       Br353   1.896       .  S
C357        C358   1.414       .  A
C357        C362   1.421       .  A
C357        H364   1.083       .  S
C358        C359   1.422       .  A
C359        C360   1.412       .  A
C359       Br366   1.875       .  S
C360        C361   1.400       .  A
C360        H365   1.071       .  S
C361        C362   1.429       .  A
C362       Br363   1.902       .  S
C367        C368   1.386       .  A
C367        C372   1.362       .  A
C367        H374   1.080       .  S
C368        C369   1.455       .  A
C369        C370   1.459       .  A
C369       Br376   1.912       .  S
C370        C371   1.431       .  A
C370        H375   1.081       .  S
C371        C372   1.382       .  A
C372       Br373   1.893       .  S
C377        C378   1.417       .  A
C377        C382   1.446       .  A
C377        H384   1.052       .  S
C378        C379   1.493       .  A
C379        C380   1.391       .  A
C379       Br386   1.942   1_554  S
C380        C381   1.375       .  A
C380        H385   1.078       .  S
C381        C382   1.436       .  A
C382       Br383   1.906       .  S
C387        C388   1.425       .  A
C387        C392   1.392       .  A
C387        H394   1.068       .  S
C388        C389   1.430   1_565  A
C389        C390   1.420       .  A
C389       Br396   1.883       .  S
C390        C391   1.401   1_545  A
C390        H395   1.073       .  S
C391        C392   1.410       .  A
C392       Br393   1.924       .  S
C397        C398   1.405       .  A
C397        C402   1.436       .  A
C397        H404   1.078       .  S
C398        C399   1.424       .  A
C399        C400   1.402       .  A
C399       Br406   1.845       .  S
C400        C401   1.395       .  A
C400        H405   1.077       .  S
C401        C402   1.447       .  A
C402       Br403   1.902       .  S
C407        C408   1.413   1_554  A
C407        C412   1.400       .  A
C407        H414   1.070       .  S
C408        C409   1.386       .  A
C409        C410   1.398       .  A
C409       Br416   1.909       .  S
C410        C411   1.410       .  A
C410        H415   1.078       .  S
C411        C412   1.394   1_556  A
C412       Br413   1.904       .  S
C417        C418   1.414       .  A
C417        C422   1.415       .  A
C417        H424   1.074       .  S
C418        C419   1.396       .  A
C419        C420   1.435       .  A
C419       Br426   1.855       .  S
C420        C421   1.438       .  A
C420        H425   1.075       .  S
C421        C422   1.422       .  A
C422       Br423   1.872       .  S
C427        C428   1.431       .  A
C427        C432   1.436       .  A
C427        H434   1.075       .  S
C428        C429   1.434       .  A
C429        C430   1.341       .  A
C429       Br436   1.971       .  S
C430        C431   1.378       .  A
C430        H435   1.046       .  S
C431        C432   1.428       .  A
C432       Br433   1.901   1_565  S
C437        C438   1.470       .  A
C437        C442   1.451       .  A
C437        H444   1.065       .  S
C438        C439   1.429       .  A
C439        C440   1.414   1_545  A
C439       Br446   1.931   1_545  S
C440        C441   1.424       .  A
C440        H445   1.025       .  S
C441        C442   1.406   1_565  A
C442       Br443   1.867       .  S
C447        C448   1.450       .  A
C447        C452   1.462       .  A
C447        H454   1.063       .  S
C448        C449   1.413       .  A
C449        C450   1.406       .  A
C449       Br456   1.931       .  S
C450        C451   1.436       .  A
C450        H455   1.059   1_554  S
C451        C452   1.453       .  A
C452       Br453   1.949       .  S
C457        C458   1.376       .  A
C457        C462   1.334   1_455  A
C457        H464   1.083       .  S
C458        C459   1.430       .  A
C459        C460   1.440       .  A
C459       Br466   1.915       .  S
C460        C461   1.432   1_455  A
C460        H465   1.079       .  S
C461        C462   1.456       .  A
C462       Br463   1.979       .  S
C467        C468   1.436       .  A
C467        C472   1.393       .  A
C467        H474   1.045       .  S
C468        C469   1.433       .  A
C469        C470   1.447       .  A
C469       Br476   1.913       .  S
C470        C471   1.451       .  A
C470        H475   1.082       .  S
C471        C472   1.379       .  A
C472       Br473   1.930       .  S
C477        C478   1.398       .  A
C477        C482   1.438       .  A
C477        H484   1.080       .  S
C478        C479   1.468       .  A
C479        C480   1.418       .  A
C479       Br486   1.883       .  S
C480        C481   1.364       .  A
C480        H485   1.069       .  S
C481        C482   1.436       .  A
C482       Br483   1.789       .  S
C487        C488   1.436       .  A
C487        C492   1.456       .  A
C487        H494   1.073       .  S
C488        C489   1.380       .  A
C489        C490   1.343       .  A
C489       Br496   1.859   1_556  S
C490        C491   1.411       .  A
C490        H495   1.069       .  S
C491        C492   1.456       .  A
C492       Br493   1.912       .  S
C497        C498   1.366       .  A
C497        C502   1.381       .  A
C497        H504   1.068       .  S
C498        C499   1.425       .  A
C499        C500   1.443       .  A
C499       Br506   1.857       .  S
C500        C501   1.431       .  A
C500        H505   1.083       .  S
C501        C502   1.480       .  A
C502       Br503   1.953   1_554  S
C507        C508   1.405   1_655  A
C507        C512   1.411       .  A
C507        H514   1.078       .  S
C508        C509   1.393       .  A
C509        C510   1.405       .  A
C509       Br516   1.925       .  S
C510        C511   1.418       .  A
C510        H515   1.069       .  S
C511        C512   1.421   1_455  A
C512       Br513   1.924       .  S
C517        C518   1.380       .  A
C517        C522   1.398       .  A
C517        H524   1.080       .  S
C518        C519   1.457       .  A
C519        C520   1.440       .  A
C519       Br526   1.861       .  S
C520        C521   1.404       .  A
C520        H525   1.081       .  S
C521        C522   1.416       .  A
C522       Br523   1.755       .  S
C527        C528   1.410   1_545  A
C527        C532   1.392       .  A
C527        H534   1.053       .  S
C528        C529   1.418       .  A
C529        C530   1.425       .  A
C529       Br536   1.888       .  S
C530        C531   1.399       .  A
C530        H535   1.076       .  S
C531        C532   1.415   1_565  A
C532       Br533   1.894       .  S
C537        C538   1.444       .  A
C537        C542   1.448       .  A
C537        H544   1.068       .  S
C538        C539   1.409       .  A
C539        C540   1.409   1_545  A
C539       Br546   1.904   1_545  S
C540        C541   1.432   1_565  A
C540        H545   1.060       .  S
C541        C542   1.401       .  A
C542       Br543   1.892       .  S
C547        C548   1.396       .  A
C547        C552   1.403       .  A
C547        H554   1.085       .  S
C548        C549   1.405   1_556  A
C549        C550   1.417       .  A
C549       Br556   1.918       .  S
C550        C551   1.418   1_554  A
C550        H555   1.078       .  S
C551        C552   1.463       .  A
C552       Br553   1.931       .  S
C557        C558   1.408       .  A
C557        C562   1.431       .  A
C557        H564   1.068       .  S
C558        C559   1.484       .  A
C559        C560   1.403       .  A
C559       Br566   1.942       .  S
C560        C561   1.385       .  A
C560        H565   1.087       .  S
C561        C562   1.455       .  A
C562       Br563   1.902       .  S
C567        C568   1.419   1_556  A
C567        C572   1.408       .  A
C567        H574   1.075       .  S
C568        C569   1.421       .  A
C569        C570   1.418       .  A
C569       Br576   1.931       .  S
C570        C571   1.419       .  A
C570        H575   1.082       .  S
C571        C572   1.414   1_554  A
C572       Br573   1.929       .  S
C577        C578   1.370       .  A
C577        C582   1.410       .  A
C577        H584   1.070       .  S
C578        C579   1.465       .  A
C579        C580   1.455       .  A
C579       Br586   1.915       .  S
C580        C581   1.434       .  A
C580        H585   1.077       .  S
C581        C582   1.447       .  A
C582       Br583   1.832       .  S
C587        C588   1.392   1_545  A
C587        C592   1.331   1_545  A
C587        H594   1.048       .  S
C588        C589   1.440       .  A
C589        C590   1.428       .  A
C589       Br596   1.916       .  S
C590        C591   1.422       .  A
C590        H595   1.074       .  S
C591        C592   1.406       .  A
C592       Br593   1.958       .  S
C597        C598   1.420       .  A
C597        C602   1.442       .  A
C597        H604   1.084       .  S
C598        C599   1.368       .  A
C599        C600   1.383       .  A
C599       Br606   1.932       .  S
C600        C601   1.446       .  A
C600        H605   1.019       .  S
C601        C602   1.479       .  A
C602       Br603   1.921       .  S
C607        C608   1.430       .  A
C607        C612   1.399       .  A
C607        H614   1.025       .  S
C608        C609   1.438       .  A
C609        C610   1.440       .  A
C609       Br616   1.829       .  S
C610        C611   1.416       .  A
C610        H615   1.084       .  S
C611        C612   1.389       .  A
C612       Br613   1.876       .  S
C617        C618   1.378       .  A
C617        C622   1.426       .  A
C617        H624   1.073       .  S
C618        C619   1.476       .  A
C619        C620   1.440       .  A
C619       Br626   1.930       .  S
C620        C621   1.407       .  A
C620        H625   1.077       .  S
C621        C622   1.480       .  A
C622       Br623   1.859   1_556  S
C627        C628   1.376       .  A
C627        C632   1.424       .  A
C627        H634   1.092       .  S
C628        C629   1.445       .  A
C629        C630   1.438       .  A
C629       Br636   1.900       .  S
C630        C631   1.417       .  A
C630        H635   1.081       .  S
C631        C632   1.462       .  A
C632       Br633   1.848       .  S
C637        C638   1.418       .  A
C637        C642   1.405       .  A
C637        H644   1.050       .  S
C638        C639   1.436       .  A
C639        C640   1.439       .  A
C639       Br646   1.891       .  S
C640        C641   1.435       .  A
C640        H645   1.079       .  S
C641        C642   1.430       .  A
C642       Br643   1.930       .  S
C647        C648   1.399       .  A
C647        C652   1.392       .  A
C647        H654   1.084       .  S
C648        C649   1.417       .  A
C649        C650   1.404       .  A
C649       Br656   1.909       .  S
C650        C651   1.403       .  A
C650        H655   1.067       .  S
C651        C652   1.409       .  A
C652       Br653   1.852       .  S
C657        C658   1.434       .  A
C657        C662   1.410       .  A
C657        H664   1.060   1_556  S
C658        C659   1.421       .  A
C659        C660   1.436       .  A
C659       Br666   1.868       .  S
C660        C661   1.438       .  A
C660        H665   1.060       .  S
C661        C662   1.419       .  A
C662       Br663   1.909       .  S
C667        C668   1.432       .  A
C667        C672   1.427       .  A
C667        H674   1.060       .  S
C668        C669   1.407       .  A
C669        C670   1.396       .  A
C669       Br676   1.938       .  S
C670        C671   1.430       .  A
C670        H675   1.043       .  S
C671        C672   1.428       .  A
C672       Br673   1.885       .  S
C677        C678   1.399       .  A
C677        C682   1.396       .  A
C677        H684   1.068       .  S
C678        C679   1.418       .  A
C679        C680   1.401       .  A
C679       Br686   1.907       .  S
C680        C681   1.396       .  A
C680        H685   1.082       .  S
C681        C682   1.414       .  A
C682       Br683   1.928       .  S
C687        C688   1.404       .  A
C687        C692   1.425       .  A
C687        H694   1.056       .  S
C688        C689   1.393       .  A
C689        C690   1.404       .  A
C689       Br696   1.908       .  S
C690        C691   1.419       .  A
C690        H695   1.037       .  S
C691        C692   1.459       .  A
C692       Br693   1.920       .  S
C697        C698   1.395       .  A
C697        C702   1.426       .  A
C697        H704   1.076       .  S
C698        C699   1.437       .  A
C699        C700   1.438       .  A
C699       Br706   1.862       .  S
C700        C701   1.391       .  A
C700        H705   1.056       .  S
C701        C702   1.423       .  A
C702       Br703   1.832       .  S
C707        C708   1.462       .  A
C707        C712   1.493       .  A
C707        H714   1.036       .  S
C708        C709   1.357       .  A
C709        C710   1.424       .  A
C709       Br716   1.905       .  S
C710        C711   1.411       .  A
C710        H715   1.063       .  S
C711        C712   1.412       .  A
C712       Br713   1.909       .  S
C717        C718   1.458       .  A
C717        C722   1.447       .  A
C717        H724   1.065       .  S
C718        C719   1.389       .  A
C719        C720   1.436       .  A
C719       Br726   1.925       .  S
C720        C721   1.413       .  A
C720        H725   1.075       .  S
C721        C722   1.433       .  A
C722       Br723   1.923       .  S
C727        C728   1.393       .  A
C727        C732   1.411       .  A
C727        H734   1.080       .  S
C728        C729   1.409       .  A
C729        C730   1.403       .  A
C729       Br736   1.911       .  S
C730        C731   1.381       .  A
C730        H735   1.035       .  S
C731        C732   1.426       .  A
C732       Br733   1.925       .  S
C737        C738   1.426       .  A
C737        C742   1.374       .  A
C737        H744   1.049       .  S
C738        C739   1.471       .  A
C739        C740   1.451       .  A
C739       Br746   1.927       .  S
C740        C741   1.419       .  A
C740        H745   1.083       .  S
C741        C742   1.361       .  A
C742       Br743   1.870       .  S
C747        C748   1.398       .  A
C747        C752   1.422       .  A
C747        H754   1.081       .  S
C748        C749   1.472       .  A
C749        C750   1.422       .  A
C749       Br756   1.890       .  S
C750        C751   1.384       .  A
C750        H755   1.080       .  S
C751        C752   1.441       .  A
C752       Br753   1.825       .  S
C757        C758   1.383       .  A
C757        C762   1.391       .  A
C757        H764   1.078       .  S
C758        C759   1.436       .  A
C759        C760   1.397       .  A
C759       Br766   1.912       .  S
C760        C761   1.401       .  A
C760        H765   1.077       .  S
C761        C762   1.418       .  A
C762       Br763   1.869       .  S
C767        C768   1.453       .  A
C767        C772   1.423       .  A
C767        H774   1.069       .  S
C768        C769   1.405       .  A
C769        C770   1.417       .  A
C769       Br776   1.930       .  S
C770        C771   1.443       .  A
C770        H775   1.054       .  S
C771        C772   1.385       .  A
C772       Br773   1.852       .  S
C777        C778   1.437       .  A
C777        C782   1.416       .  A
C777        H784   1.061       .  S
C778        C779   1.416       .  A
C779        C780   1.408       .  A
C779       Br786   1.916       .  S
C780        C781   1.403       .  A
C780        H785   1.029       .  S
C781        C782   1.367       .  A
C782       Br783   1.813       .  S
C787        C788   1.425       .  A
C787        C792   1.436       .  A
C787        H794   1.081       .  S
C788        C789   1.389       .  A
C789        C790   1.360       .  A
C789       Br796   1.880       .  S
C790        C791   1.395       .  A
C790        H795   1.062       .  S
C791        C792   1.431       .  A
C792       Br793   1.892       .  S
C797        C798   1.413       .  A
C797        C802   1.431       .  A
C797        H804   1.080       .  S
C798        C799   1.479       .  A
C799        C800   1.384       .  A
C799       Br806   1.958       .  S
C800        C801   1.358       .  A
C800        H805   1.065       .  S
C801        C802   1.450       .  A
C802       Br803   1.926       .  S
C807        C808   1.419       .  A
C807        C812   1.447       .  A
C807        H814   1.074       .  S
C808        C809   1.413       .  A
C809        C810   1.380       .  A
C809       Br816   1.911       .  S
C810        C811   1.406       .  A
C810        H815   1.044       .  S
C811        C812   1.486       .  A
C812       Br813   1.929       .  S
C817        C818   1.390       .  A
C817        C822   1.412       .  A
C817        H824   1.081       .  S
C818        C819   1.412       .  A
C819        C820   1.402       .  A
C819       Br826   1.907       .  S
C820        C821   1.399       .  A
C820        H825   1.074       .  S
C821        C822   1.409       .  A
C822       Br823   1.899       .  S
C827        C828   1.415       .  A
C827        C832   1.409       .  A
C827        H834   1.032       .  S
C828        C829   1.439       .  A
C829        C830   1.416       .  A
C829       Br836   1.904       .  S
C830        C831   1.411       .  A
C830        H835   1.080       .  S
C831        C832   1.380       .  A
C832       Br833   1.931   1_655  S
C837        C838   1.407       .  A
C837        C842   1.437       .  A
C837        H844   1.078       .  S
C838        C839   1.470       .  A
C839        C840   1.412       .  A
C839       Br846   1.867       .  S
C840        C841   1.380       .  A
C840        H845   1.079       .  S
C841        C842   1.447       .  A
C842       Br843   1.913       .  S
C847        C848   1.438       .  A
C847        C852   1.440       .  A
C847        H854   1.073       .  S
C848        C849   1.385       .  A
C849        C850   1.334       .  A
C849       Br856   1.893       .  S
C850        C851   1.401       .  A
C850        H855   1.066       .  S
C851        C852   1.451       .  A
C852       Br853   1.915       .  S
C857        C858   1.403       .  A
C857        C862   1.382       .  A
C857        H864   0.986       .  S
C858        C859   1.422       .  A
C859        C860   1.460       .  A
C859       Br866   1.906       .  S
C860        C861   1.469       .  A
C860        H865   1.069       .  S
C861        C862   1.393       .  A
C862       Br863   1.940   1_655  S
C867        C868   1.441       .  A
C867        C872   1.458       .  A
C867        H874   1.081       .  S
C868        C869   1.385       .  A
C869        C870   1.379       .  A
C869       Br876   1.903   1_655  S
C870        C871   1.413       .  A
C870        H875   1.067   1_655  S
C871        C872   1.425       .  A
C872       Br873   1.905       .  S
C877        C878   1.401       .  A
C877        C882   1.425       .  A
C877        H884   1.083       .  S
C878        C879   1.463       .  A
C879        C880   1.395       .  A
C879       Br886   1.899       .  S
C880        C881   1.385       .  A
C880        H885   1.073       .  S
C881        C882   1.420       .  A
C882       Br883   1.918       .  S
C887        C888   1.380       .  A
C887        C892   1.412       .  A
C887        H894   1.083       .  S
C888        C889   1.467       .  A
C889        C890   1.419       .  A
C889       Br896   1.898   1_655  S
C890        C891   1.380       .  A
C890        H895   1.078       .  S
C891        C892   1.416       .  A
C892       Br893   1.783       .  S
C897        C898   1.404       .  A
C897        C902   1.422       .  A
C897        H904   1.049       .  S
C898        C899   1.459       .  A
C899        C900   1.452       .  A
C899       Br906   1.836       .  S
C900        C901   1.418       .  A
C900        H905   1.084       .  S
C901        C902   1.389       .  A
C902       Br903   1.884       .  S
C907        C908   1.409       .  A
C907        C912   1.433       .  A
C907        H914   1.081       .  S
C908        C909   1.419       .  A
C909        C910   1.311       .  A
C909       Br916   1.983       .  S
C910        C911   1.396       .  A
C910        H915   1.055       .  S
C911        C912   1.455       .  A
C912       Br913   1.917       .  S
C917        C918   1.439       .  A
C917        C922   1.420       .  A
C917        H924   1.060       .  S
C918        C919   1.400       .  A
C919        C920   1.417       .  A
C919       Br926   1.852       .  S
C920        C921   1.421       .  A
C920        H925   1.070   1_655  S
C921        C922   1.389       .  A
C922       Br923   1.849       .  S
C927        C928   1.453       .  A
C927        C932   1.434       .  A
C927        H934   1.058       .  S
C928        C929   1.409       .  A
C929        C930   1.410       .  A
C929       Br936   1.912       .  S
C930        C931   1.423       .  A
C930        H935   1.023       .  S
C931        C932   1.398       .  A
C932       Br933   1.875       .  S
