geometry optimzed in LAMMPS
_audit_creation_date              2020-12-01 
_audit_creation_method            'lammps2cif' 
_symmetry_space_group_name_H-M    'P1' 
_symmetry_Int_Tables_number       1 
_symmetry_cell_setting            triclinic 
loop_ 
_symmetry_equiv_pos_as_xyz 
  x,y,z 
_cell_length_a                    49.96751905 
_cell_length_b                    50.00176123618813 
_cell_length_c                    33.278916634368386 
_cell_angle_alpha                 89.49931909451104 
_cell_angle_beta                  88.5197110136086 
_cell_angle_gamma                 130.54096535781318 
loop_ 
_atom_site_label 
_atom_site_type_symbol 
_atom_site_fract_x 
_atom_site_fract_y 
_atom_site_fract_z 
_atom_site_charge 
C1          C  0.35385724  0.14754365  0.89935117     0.86400
C2          C  0.36946982  0.18472817  0.91111269    -0.53800
C3          C  0.35694888  0.19797468  0.89009569     0.09400
C4          C  0.33034173  0.17322970  0.85837636     0.20300
C5          C  0.31367544  0.12539942  0.90338165    -0.54500
C6          C  0.30118912  0.13881922  0.88244706     0.09500
C7          C  0.36261795  0.15252389  0.85386950    -0.54100
C8          C  0.34965490  0.16479655  0.83175840     0.10000
H9          H  0.38906377  0.19961009  0.93371160     0.14600
H10         H  0.32030943  0.18430117  0.84193608     0.00300
H11         H  0.29702418  0.10261148  0.92383499     0.14900
H12         H  0.38088676  0.15014684  0.84082165     0.14600
C13         C  0.36754658  0.15909097  0.71925091     0.86400
C14         C  0.32837341  0.13918810  0.71237909    -0.53800
C15         C  0.31426253  0.15142572  0.73317152     0.09400
C16         C  0.34145774  0.18315312  0.75916961     0.20300
C17         C  0.38642801  0.19776176  0.70949077    -0.54500
C18         C  0.37287151  0.21042116  0.72975954     0.09500
C19         C  0.36776422  0.15637422  0.76525030    -0.54100
C20         C  0.35470891  0.16922849  0.78666757     0.10000
H21         H  0.31281605  0.11650299  0.69347209     0.14600
H22         H  0.33112124  0.19380841  0.77604281     0.00300
H23         H  0.40744244  0.21328821  0.68646637     0.14900
H24         H  0.37312111  0.14102497  0.77956938     0.14600
C25         C  0.13757090  0.36874549  0.22991924     0.86400
C26         C  0.13913267  0.37074856  0.27590709    -0.53800
C27         C  0.15526211  0.36002622  0.29422773     0.09400
C28         C  0.16855815  0.34753466  0.26296133     0.20300
C29         C  0.17630467  0.39014724  0.21597350    -0.54500
C30         C  0.19268018  0.37898616  0.23205765     0.09500
C31         C  0.11986281  0.33044013  0.22232383    -0.54100
C32         C  0.13576135  0.31903514  0.23885269     0.10000
H33         H  0.12821505  0.37991987  0.29269603     0.14600
H34         H  0.18110942  0.33792526  0.27639952     0.00300
H35         H  0.18934293  0.41162782  0.19368936     0.14900
H36         H  0.09668419  0.31369320  0.20442851     0.14600
C37         C  0.15146857  0.37475644  0.40829164     0.86400
C38         C  0.14852022  0.37626030  0.36310699    -0.53800
C39         C  0.15840648  0.36114695  0.33979753     0.09400
C40         C  0.17220217  0.34653056  0.36601469     0.20300
C41         C  0.13157440  0.33613473  0.41935604    -0.54500
C42         C  0.14215247  0.32097489  0.39811716     0.09500
C43         C  0.19024248  0.39241169  0.41303112    -0.54100
C44         C  0.20146388  0.37814471  0.39115260     0.10000
H45         H  0.13964762  0.38952075  0.35179153     0.14600
H46         H  0.18120575  0.33468485  0.34859110     0.00300
H47         H  0.11200965  0.32242230  0.44409934     0.14900
H48         H  0.20792767  0.41366497  0.43285629     0.14600
O49         O  0.43704542  0.43693206  0.99649975    -0.80900
O50         O  0.00808135  0.06665757  0.11112611    -0.65600
O51         O  0.48599421  0.00629913  0.02432932    -1.12200
C52         C  0.04169751  0.47581028  0.10333794     1.05900
O53         O  0.06183650  0.08519097  0.11663664    -0.78800
O54         O  0.08360762  0.06097610  0.06497521    -0.66400
Ni55       Ni  0.43829827  0.47557106  0.00681157     1.34900
C56         C  0.07859147  0.04662820  0.03160646     0.84700
O57         O  0.48068343  0.05802777  0.03995665    -0.79400
O58         O  0.43297230  0.01033393  0.01230002    -0.89700
C59         C  0.03876472  0.08797118  0.12458278     0.84300
O60         O  0.41658624  0.45569247  0.05893965    -0.67900
O61         O  0.05864743  0.00632498  0.11758008    -0.87100
C62         C  0.42125797  0.47246134  0.09017766     0.85100
C63         C  0.45161935  0.04215064  0.02273267     1.06700
H64         H  0.99492558  0.99927954  0.11555791     0.38500
O65         O  0.01134024  0.01428159  0.09353473    -1.09800
O66         O  0.04848487  0.01781399  0.02272919    -0.66500
Ni67       Ni  0.00207247  0.48460847  0.05024631     1.26300
O68         O  0.44987765  0.00376504  0.09525182    -0.66700
O69         O  0.01741815  0.46301647  0.07831247    -0.79000
C70         C  0.45976337  0.43315559  0.99197468     0.84500
O71         O  0.48996892  0.45406114  0.00686840    -0.66200
Ni72       Ni  0.05745654  0.04398413  0.11500366     1.27400
Ni73       Ni  0.49596967  0.03637921  0.06756262     1.26100
H74         H  0.00161120  0.02079478  0.00138078     0.39000
O75         O  0.07931332  0.07233046  0.63050705    -0.80900
O76         O  0.45385871  0.50815513  0.51234063    -0.65600
O77         O  0.01058529  0.02704968  0.60056738    -1.12200
C78         C  0.04497796  0.47590314  0.51670696     1.05900
O79         O  0.43688638  0.45526852  0.50406173    -0.78800
O80         O  0.46306334  0.43054432  0.54554557    -0.66400
Ni81       Ni  0.04213976  0.07384622  0.61978679     1.34900
C82         C  0.47026501  0.43365543  0.58243867     0.84700
O83         O  0.46030849  0.03318654  0.58513929    -0.79400
O84         O  0.50799401  0.08025044  0.61418168    -0.89700
C85         C  0.43334163  0.47786470  0.49762565     0.84300
O86         O  0.06357716  0.09653906  0.56804945    -0.67900
O87         O  0.02035118  0.46652668  0.49378173    -0.87100
C88         C  0.04724128  0.09339405  0.53726323     0.85100
C89         C  0.47633497  0.06211619  0.60301180     1.06700
H90         H  0.02358160  0.02386328  0.51061648     0.38500
O91         O  0.50628238  0.50532741  0.52984234    -1.09800
O92         O  0.99364521  0.46328386  0.59808719    -0.66500
Ni93       Ni  0.03134796  0.00987375  0.57518275     1.26300
O94         O  0.01565070  0.06564903  0.53168899    -0.66700
O95         O  0.05152134  0.49231350  0.54897868    -0.79000
C96         C  0.08000457  0.04742570  0.63569656     0.84500
O97         O  0.05748641  0.01743015  0.62080562    -0.66200
Ni98       Ni  0.47984810  0.46281940  0.50083593     1.27400
Ni99       Ni  0.48259759  0.01889342  0.55656818     1.26100
H100        H  0.49508534  0.01142832  0.62287828     0.39000
C101        C  0.40313308  0.46754842  0.47497226    -0.12000
C102        C  0.39450432  0.45004843  0.43836882     0.03500
C103        C  0.36392818  0.43800372  0.41940919    -0.12600
C104        C  0.34152042  0.44290506  0.43651147     0.18300
C105        C  0.35036591  0.46074075  0.47289727    -0.09600
C106        C  0.38131203  0.47343290  0.49140672    -0.02600
H107        H  0.35724213  0.42419260  0.39156928     0.04800
C108        C  0.30751032  0.42640980  0.41812772     0.20300
H109        H  0.38745300  0.48642220  0.51978745     0.10000
C110        C  0.28165005  0.38960565  0.41912983    -0.15900
C111        C  0.24746738  0.37278873  0.40714679     0.03000
C112        C  0.23856537  0.39304854  0.39439418    -0.11300
C113        C  0.26546118  0.42992794  0.39058663    -0.01300
C114        C  0.29976533  0.44657771  0.40173002    -0.06400
H115        H  0.28772212  0.37389402  0.43094431     0.06000
H116        H  0.25942957  0.44595786  0.37989574     0.09400
Br117      Br  0.31958725  0.46560340  0.50051156    -0.06100
Br118      Br  0.42388941  0.44258026  0.41256012    -0.03100
Br119      Br  0.21436145  0.32259039  0.41218709    -0.00200
Br120      Br  0.33502548  0.49680059  0.39453260    -0.04600
C121        C  0.13700912  0.38993300  0.43104734    -0.12000
C122        C  0.10101708  0.37411217  0.42844124     0.03500
C123        C  0.08863521  0.38960622  0.44635154    -0.12600
C124        C  0.11125689  0.42109946  0.46647931     0.18300
C125        C  0.14656276  0.43672617  0.47011548    -0.09600
C126        C  0.15914859  0.42121543  0.45278605    -0.02600
H127        H  0.06135923  0.37767244  0.44330199     0.04800
C128        C  0.09798542  0.43857361  0.48047131     0.20300
H129        H  0.18673735  0.43514634  0.45557671     0.10000
C130        C  0.08597380  0.43367825  0.52053594    -0.15900
C131        C  0.07000118  0.44710917  0.53340800     0.03000
C132        C  0.06596113  0.46576841  0.50577680    -0.11300
C133        C  0.07893014  0.47141529  0.46595435    -0.01300
C134        C  0.09507424  0.45816505  0.45327437    -0.06400
H135        H  0.08794242  0.41834191  0.54144037     0.06000
H136        H  0.07588978  0.48560516  0.44448251     0.09400
Br137      Br  0.17902197  0.48054186  0.49640801    -0.06100
Br138      Br  0.06719679  0.33247044  0.39886812    -0.03100
Br139      Br  0.05098120  0.43595240  0.58778960    -0.00200
Br140      Br  0.11210046  0.46660308  0.39833715    -0.04600
C141        C  0.06365823  0.12412814  0.50876514    -0.12000
C142        C  0.10049677  0.15080501  0.50208897     0.03500
C143        C  0.11427343  0.18174663  0.48003227    -0.12600
C144        C  0.09198658  0.18686041  0.46442412     0.18300
C145        C  0.05529345  0.15974880  0.46952720    -0.09600
C146        C  0.04148801  0.12867694  0.49097651    -0.02600
H147        H  0.14257840  0.20240085  0.47604025     0.04800
C148        C  0.10720097  0.22172630  0.44653037     0.20300
H149        H  0.01315859  0.10888061  0.49587680     0.10000
C150        C  0.10650547  0.22612476  0.40488214    -0.15900
C151        C  0.11833647  0.25830931  0.38814345     0.03000
C152        C  0.13112511  0.28670311  0.41312594    -0.11300
C153        C  0.13231318  0.28219506  0.45468558    -0.01300
C154        C  0.12044263  0.25024314  0.47136428    -0.06400
H155        H  0.09592876  0.20419558  0.38552154     0.06000
H156        H  0.14239280  0.30372715  0.47453347     0.09400
Br157      Br  0.02308042  0.16537050  0.45099048    -0.06100
Br158      Br  0.13326491  0.14636087  0.52163882    -0.03100
Br159      Br  0.11392920  0.26121723  0.33185335    -0.00200
Br160      Br  0.12095244  0.24628635  0.52869104    -0.04600
C161        C  0.12155376  0.28246413  0.23203160    -0.12000
C162        C  0.14221293  0.27499380  0.21511055     0.03500
C163        C  0.12593274  0.24113027  0.20198136    -0.12600
C164        C  0.08929338  0.21403253  0.20594172     0.18300
C165        C  0.06901026  0.22049475  0.22615259    -0.09600
C166        C  0.08502240  0.25456499  0.23817398    -0.02600
H167        H  0.14188028  0.23618523  0.18725170     0.04800
C168        C  0.07309337  0.17985565  0.18742928     0.20300
H169        H  0.06877108  0.25943086  0.25214468     0.10000
C170        C  0.08195807  0.15997953  0.20107091    -0.15900
C171        C  0.07023997  0.12949815  0.18168438     0.03000
C172        C  0.04903825  0.11825225  0.14794318    -0.11300
C173        C  0.03928269  0.13756077  0.13504188    -0.01300
C174        C  0.05155838  0.16842268  0.15402361    -0.06400
H175        H  0.09857786  0.16857128  0.22658600     0.06000
H176        H  0.02343636  0.12955444  0.10889049     0.09400
Br177      Br  0.01961498  0.18358270  0.23856298    -0.06100
Br178      Br  0.19212662  0.30963690  0.20578001    -0.03100
Br179      Br  0.08338117  0.10390326  0.20334053    -0.00200
Br180      Br  0.04080353  0.19560363  0.13079959    -0.04600
C181        C  0.22778284  0.39243093  0.21506164    -0.12000
C182        C  0.25504086  0.40080591  0.23913341     0.03500
C183        C  0.28709391  0.41276335  0.22135884    -0.12600
C184        C  0.29275657  0.41650475  0.17947647     0.18300
C185        C  0.26565301  0.40799709  0.15521715    -0.09600
C186        C  0.23373996  0.39626096  0.17295159    -0.02600
H187        H  0.30789357  0.41953728  0.24033888     0.04800
C188        C  0.32736330  0.43034681  0.16148613     0.20300
H189        H  0.21320002  0.38951280  0.15353931     0.10000
C190        C  0.33068562  0.40724490  0.14369536    -0.15900
C191        C  0.36208564  0.41998455  0.12311939     0.03000
C192        C  0.39086204  0.45667970  0.11948675    -0.11300
C193        C  0.38808721  0.47941964  0.13987156    -0.01300
C194        C  0.35677446  0.46658838  0.16055262    -0.06400
H195        H  0.30849070  0.37918963  0.14520336     0.06000
H196        H  0.40959812  0.50762991  0.13769209     0.09400
Br197      Br  0.27127824  0.41259543  0.09766913    -0.06100
Br198      Br  0.25121243  0.39860270  0.29626854    -0.03100
Br199      Br  0.36416053  0.38585030  0.10155097    -0.00200
Br200      Br  0.35451854  0.49981834  0.18467918    -0.04600
C201        C  0.11901004  0.38027942  0.20865238    -0.12000
C202        C  0.11818165  0.38134113  0.16594244     0.03500
C203        C  0.10282296  0.39348668  0.14704656    -0.12600
C204        C  0.08748645  0.40440899  0.16947837     0.18300
C205        C  0.08643824  0.40177305  0.21157647    -0.09600
C206        C  0.10159050  0.38964556  0.23060127    -0.02600
H207        H  0.10342355  0.39504476  0.11450220     0.04800
C208        C  0.07517022  0.42102814  0.14890184     0.20300
H209        H  0.09898856  0.38791696  0.26280595     0.10000
C210        C  0.03902676  0.40372836  0.14882443    -0.15900
C211        C  0.02731812  0.42060102  0.13306610     0.03000
C212        C  0.05193956  0.45522735  0.11660102    -0.11300
C213        C  0.08797095  0.47213836  0.11613308    -0.01300
C214        C  0.09963783  0.45544120  0.13209034    -0.06400
H215        H  0.01998910  0.37750872  0.16238108     0.06000
H216        H  0.10729156  0.99894102  0.10417859     0.09400
Br217      Br  0.06614051  0.41626162  0.24486247    -0.06100
Br218      Br  0.13752312  0.36675017  0.13092395    -0.03100
Br219      Br  0.97803892  0.39685892  0.13877210    -0.00200
Br220      Br  0.14950288  0.48170024  0.13306659    -0.04600
C221        C  0.38345578  0.14562404  0.69534351    -0.12000
C222        C  0.37944738  0.14012274  0.65327211     0.03500
C223        C  0.39222812  0.12543782  0.63333224    -0.12600
C224        C  0.40990642  0.11686669  0.65420738     0.18300
C225        C  0.41644449  0.12481643  0.69487962    -0.09600
C226        C  0.40408721  0.13958040  0.71466536    -0.02600
H227        H  0.38856151  0.12090145  0.60141457     0.04800
C228        C  0.42371124  0.10168330  0.63358379     0.20300
H229        H  0.41206041  0.14707198  0.74510573     0.10000
C230        C  0.45826655  0.12458813  0.61722185    -0.15900
C231        C  0.47552005  0.11209549  0.60614949     0.03000
C232        C  0.45789963  0.07581321  0.61089162    -0.11300
C233        C  0.42244499  0.05259415  0.62477955    -0.01300
C234        C  0.40550493  0.06533713  0.63662469    -0.06400
H235        H  0.47252474  0.15261417  0.61506063     0.06000
H236        H  0.40844448  0.02469966  0.62842189     0.09400
Br237      Br  0.44285699  0.11637146  0.72477345    -0.06100
Br238      Br  0.35837736  0.15348530  0.62066154    -0.03100
Br239      Br  0.52321107  0.14616775  0.58508600    -0.00200
Br240      Br  0.35848184  0.03270171  0.65975715    -0.04600
C241        C  0.38270273  0.24430584  0.71681612    -0.12000
C242        C  0.41376724  0.27695648  0.72877927     0.03500
C243        C  0.42404139  0.30838692  0.71171502    -0.12600
C244        C  0.40401016  0.30763453  0.68206476     0.18300
C245        C  0.37273762  0.27486639  0.67066863    -0.09600
C246        C  0.36280306  0.24372060  0.68743082    -0.02600
H247        H  0.44880794  0.33332150  0.71970412     0.04800
C248        C  0.41946861  0.33997447  0.65746094     0.20300
H249        H  0.34002120  0.21876710  0.67630584     0.10000
C250        C  0.43061192  0.34165382  0.61779274    -0.15900
C251        C  0.44591191  0.37127586  0.59279108     0.03000
C252        C  0.45155682  0.40092983  0.60772045    -0.11300
C253        C  0.44031561  0.39930258  0.64761043    -0.01300
C254        C  0.42379188  0.36884679  0.67224826    -0.06400
H255        H  0.42743895  0.31959195  0.60616724     0.06000
H256        H  0.44392464  0.42153619  0.65941555     0.09400
Br257      Br  0.34360669  0.27125664  0.63070831    -0.06100
Br258      Br  0.44463477  0.27949281  0.76478705    -0.03100
Br259      Br  0.96005193  0.36968040  0.53921249    -0.00200
Br260      Br  0.40605376  0.36701294  0.72490992    -0.04600
C261        C  0.27558789  0.13249876  0.73292116    -0.12000
C262        C  0.26163797  0.14968236  0.73032706     0.03500
C263        C  0.22622246  0.13037357  0.72161334    -0.12600
C264        C  0.20335594  0.09378792  0.71779868     0.18300
C265        C  0.21596475  0.07608367  0.72555828    -0.09600
C266        C  0.25171199  0.09537500  0.73257574    -0.02600
H267        H  0.21666245  0.14427520  0.71648798     0.04800
C268        C  0.16820600  0.07583197  0.70102470     0.20300
H269        H  0.26098533  0.08116057  0.73718547     0.10000
C270        C  0.16128754  0.06073868  0.66323858    -0.15900
C271        C  0.13192869  0.04996196  0.64226345     0.03000
C272        C  0.10883203  0.05442336  0.65890608    -0.11300
C273        C  0.11483013  0.06798708  0.69755016    -0.01300
C274        C  0.14399306  0.07831624  0.71874708    -0.06400
H275        H  0.17994276  0.05917824  0.64891947     0.06000
H276        H  0.09703737  0.07105255  0.71105477     0.09400
Br277      Br  0.18529940  0.02568042  0.72742697    -0.06100
Br278      Br  0.28782432  0.19891207  0.73713470    -0.03100
Br279      Br  0.12731632  0.03333274  0.58912215    -0.00200
Br280      Br  0.14991861  0.09584743  0.77170353    -0.04600
C281        C  0.36715638  0.13166967  0.92322387    -0.12000
C282        C  0.36884342  0.13240554  0.96585355     0.03500
C283        C  0.38408209  0.12044487  0.98570233    -0.12600
C284        C  0.39697504  0.10663256  0.96420325     0.18300
C285        C  0.39239591  0.10274424  0.92264985    -0.09600
C286        C  0.37715749  0.11440197  0.90290342    -0.02600
H287        H  0.38563348  0.12167382  0.01812937     0.04800
C288        C  0.41239862  0.09340928  0.98530567     0.20300
H289        H  0.37236242  0.10849270  0.87153646     0.10000
C290        C  0.38976264  0.06047823  0.00546148    -0.15900
C291        C  0.40234586  0.04407851  0.01942618     0.03000
C292        C  0.43844643  0.06088241  0.01371913    -0.11300
C293        C  0.46149153  0.09493309  0.99597599    -0.01300
C294        C  0.44869364  0.11104959  0.98144992    -0.06400
H295        H  0.36185507  0.04675254  0.00875131     0.06000
H296        H  0.48922435  0.10828517  0.99144659     0.09400
Br297      Br  0.40536837  0.08026566  0.89148927    -0.06100
Br298      Br  0.34915056  0.14729387  0.99939749    -0.03100
Br299      Br  0.36879337  0.49870645  0.04599422    -0.00200
Br300      Br  0.48134463  0.15633341  0.95455073    -0.04600
C301        C  0.44930951  0.40255214  0.96887061    -0.12000
C302        C  0.45820450  0.38199834  0.98026492     0.03500
C303        C  0.44329363  0.35056239  0.96095455    -0.12600
C304        C  0.41954338  0.33892314  0.93020067     0.18300
C305        C  0.41180922  0.36006310  0.91748492    -0.09600
C306        C  0.42669968  0.39154630  0.93673377    -0.02600
H307        H  0.44905402  0.33420653  0.97122387     0.04800
C308        C  0.39989977  0.30262863  0.91631660     0.20300
H309        H  0.41958985  0.40695483  0.92738574     0.10000
C310        C  0.37632886  0.27469648  0.94394380    -0.15900
C311        C  0.36058070  0.24016938  0.93490158     0.03000
C312        C  0.36846137  0.23308498  0.89768782    -0.11300
C313        C  0.39017448  0.26056065  0.86889407    -0.01300
C314        C  0.40611960  0.29532672  0.87801988    -0.06400
H315        H  0.37091621  0.27996399  0.97320862     0.06000
H316        H  0.39603297  0.25517066  0.84005125     0.09400
Br317      Br  0.37896861  0.34577609  0.87636989    -0.06100
Br318      Br  0.48731977  0.39299615  0.02454637    -0.03100
Br319      Br  0.32851825  0.20365902  0.97442762    -0.00200
Br320      Br  0.43794914  0.33203646  0.83856039    -0.04600
C321        C  0.26489182  0.12608105  0.89038219    -0.12000
C322        C  0.23471246  0.08995070  0.89235697     0.03500
C323        C  0.20267942  0.07887753  0.90910350    -0.12600
C324        C  0.19977180  0.10339597  0.92303407     0.18300
C325        C  0.22890458  0.13959188  0.91686746    -0.09600
C326        C  0.26097946  0.15060149  0.90068356    -0.02600
H327        H  0.18035741  0.05095967  0.91271069     0.04800
C328        C  0.16842327  0.09098750  0.94880527     0.20300
H329        H  0.28344989  0.17852425  0.89831479     0.10000
C330        C  0.17340546  0.09960021  0.98937464    -0.15900
C331        C  0.14501410  0.08658280  0.01622697     0.03000
C332        C  0.10987103  0.06372200  0.00284599    -0.11300
C333        C  0.10503091  0.05565310  0.96175277    -0.01300
C334        C  0.13387321  0.06919985  0.93488899    -0.06400
H335        H  0.19979160  0.11600816  0.00058477     0.06000
H336        H  0.07870207  0.03859040  0.95042734     0.09400
Br337      Br  0.22644772  0.17504320  0.93117710    -0.06100
Br338      Br  0.23570407  0.05491666  0.87158909    -0.03100
Br339      Br  0.15732577  0.09988911  0.07113128    -0.00200
Br340      Br  0.12510369  0.05809278  0.87928025    -0.04600
C341        C  0.35386988  0.64755502  0.89935746     0.86400
C342        C  0.36948063  0.68473804  0.91112340    -0.53800
C343        C  0.35695983  0.69798564  0.89010890     0.09400
C344        C  0.33035422  0.67324296  0.85838696     0.20300
C345        C  0.31368729  0.62540873  0.90338634    -0.54500
C346        C  0.30120199  0.63883039  0.88245326     0.09500
C347        C  0.36263177  0.65253920  0.85387561    -0.54100
C348        C  0.34966750  0.66481166  0.83176645     0.10000
H349        H  0.38907539  0.69961938  0.93372163     0.14600
H350        H  0.32032140  0.68431502  0.84194915     0.00300
H351        H  0.29703428  0.60261735  0.92383476     0.14900
H352        H  0.38089982  0.65016168  0.84082647     0.14600
C353        C  0.36756164  0.65911239  0.71925709     0.86400
C354        C  0.32838754  0.63920219  0.71238377    -0.53800
C355        C  0.31426922  0.65143253  0.73317496     0.09400
C356        C  0.34145891  0.68315995  0.75917758     0.20300
C357        C  0.38643582  0.69778178  0.70950005    -0.54500
C358        C  0.37287290  0.71043402  0.72977080     0.09500
C359        C  0.36777855  0.65639380  0.76525617    -0.54100
C360        C  0.35471666  0.66924108  0.78667489     0.10000
H361        H  0.31283553  0.61651899  0.69347341     0.14600
H362        H  0.33111607  0.69380881  0.77605146     0.00300
H363        H  0.40745274  0.71331360  0.68647930     0.14900
H364        H  0.37314403  0.64105101  0.77957319     0.14600
C365        C  0.13757075  0.86874327  0.22994172     0.86400
C366        C  0.13912625  0.87073395  0.27593080    -0.53800
C367        C  0.15526035  0.86001491  0.29424535     0.09400
C368        C  0.16855778  0.84752797  0.26297355     0.20300
C369        C  0.17630505  0.89014657  0.21599707    -0.54500
C370        C  0.19268014  0.87898346  0.23207619     0.09500
C371        C  0.11986291  0.83043832  0.22233740    -0.54100
C372        C  0.13576231  0.81903156  0.23886008     0.10000
H373        H  0.12818948  0.87988127  0.29272903     0.14600
H374        H  0.18110930  0.83791713  0.27640689     0.00300
H375        H  0.18934313  0.91162866  0.19371492     0.14900
H376        H  0.09668429  0.81369322  0.20444184     0.14600
C377        C  0.15147999  0.87474904  0.40831218     0.86400
C378        C  0.14852536  0.87625100  0.36312818    -0.53800
C379        C  0.15840902  0.86113689  0.33981449     0.09400
C380        C  0.17220998  0.84652365  0.36602578     0.20300
C381        C  0.13158818  0.83612758  0.41937613    -0.54500
C382        C  0.14216423  0.82096822  0.39813111     0.09500
C383        C  0.19025519  0.89240534  0.41304337    -0.54100
C384        C  0.20147459  0.87813856  0.39116053     0.10000
H385        H  0.13965269  0.88951236  0.35181585     0.14600
H386        H  0.18121257  0.83467878  0.34859832     0.00300
H387        H  0.11202499  0.82241431  0.44412080     0.14900
H388        H  0.20794278  0.91365834  0.43286755     0.14600
O389        O  0.43705380  0.93693579  0.99650839    -0.80900
O390        O  0.00810135  0.56666139  0.11111208    -0.65600
O391        O  0.48599816  0.50629748  0.02431422    -1.12200
C392        C  0.04169418  0.97582095  0.10338010     1.05900
O393        O  0.06185241  0.58518588  0.11663048    -0.78800
O394        O  0.08360841  0.56097711  0.06493521    -0.66400
Ni395      Ni  0.43829806  0.97556954  0.00681682     1.34900
C396        C  0.07859080  0.54661340  0.03157795     0.84700
O397        O  0.48070220  0.55803416  0.03994358    -0.79400
O398        O  0.43297975  0.51034118  0.01229951    -0.89700
C399        C  0.03878371  0.58797101  0.12457284     0.84300
O400        O  0.41657919  0.95568833  0.05894195    -0.67900
O401        O  0.05866587  0.50632095  0.11752453    -0.87100
C402        C  0.42124728  0.97245509  0.09018082     0.85100
C403        C  0.45163704  0.54216119  0.02272414     1.06700
H404        H  0.99493761  0.49927931  0.11554296     0.38500
O405        O  0.01134942  0.51427823  0.09351666    -1.09800
O406        O  0.04848401  0.51779622  0.02270754    -0.66500
Ni407      Ni  0.00207403  0.98461592  0.05026547     1.26300
O408        O  0.44989048  0.50377136  0.09524402    -0.66700
O409        O  0.01742849  0.96303152  0.07833529    -0.79000
C410        C  0.45977617  0.93316505  0.99198601     0.84500
O411        O  0.48997892  0.95407109  0.00688696    -0.66200
Ni412      Ni  0.05747155  0.54397893  0.11497201     1.27400
Ni413      Ni  0.49598208  0.53638004  0.06754853     1.26100
H414        H  0.00161389  0.52079091  0.00136348     0.39000
O415        O  0.07931103  0.57232360  0.63048955    -0.80900
O416        O  0.45387701  0.00815155  0.51232676    -0.65600
O417        O  0.01057720  0.52704637  0.60056718    -1.12200
C418        C  0.04501080  0.97591825  0.51672526     1.05900
O419        O  0.43691230  0.95526684  0.50405696    -0.78800
O420        O  0.46309297  0.93055035  0.54554957    -0.66400
Ni421      Ni  0.04214117  0.57384577  0.61977861     1.34900
C422        C  0.47028584  0.93366392  0.58244605     0.84700
O423        O  0.46030452  0.53319220  0.58515511    -0.79400
O424        O  0.50800099  0.58025834  0.61418035    -0.89700
C425        C  0.43336083  0.97785795  0.49761865     0.84300
O426        O  0.06357228  0.59653004  0.56803682    -0.67900
O427        O  0.02038769  0.96654128  0.49379295    -0.87100
C428        C  0.04723269  0.59338447  0.53725458     0.85100
C429        C  0.47633937  0.56212592  0.60302081     1.06700
H430        H  0.02355768  0.52385532  0.51061238     0.38500
O431        O  0.50630570  0.00533503  0.52984442    -1.09800
O432        O  0.99365989  0.96329270  0.59809486    -0.66500
Ni433      Ni  0.03133171  0.50986551  0.57517289     1.26300
O434        O  0.01563757  0.56564443  0.53169139    -0.66700
O435        O  0.05154504  0.99232468  0.54899836    -0.79000
C436        C  0.08000048  0.54741748  0.63567527     0.84500
O437        O  0.05747773  0.51742130  0.62078770    -0.66200
Ni438      Ni  0.47987913  0.96282609  0.50083908     1.27400
Ni439      Ni  0.48258301  0.51889152  0.55657557     1.26100
H440        H  0.49507999  0.51142637  0.62288141     0.39000
C441        C  0.40314572  0.96753231  0.47497101    -0.12000
C442        C  0.39451030  0.95002336  0.43837316     0.03500
C443        C  0.36393292  0.93797787  0.41941563    -0.12600
C444        C  0.34152904  0.94288519  0.43651553     0.18300
C445        C  0.35037802  0.96072444  0.47289917    -0.09600
C446        C  0.38132624  0.97341895  0.49140529    -0.02600
H447        H  0.35724335  0.92416226  0.39157867     0.04800
C448        C  0.30751986  0.92639406  0.41813094     0.20300
H449        H  0.38747080  0.98641299  0.51978313     0.10000
C450        C  0.28165792  0.88959013  0.41912664    -0.15900
C451        C  0.24747604  0.87277691  0.40714365     0.03000
C452        C  0.23857578  0.89304015  0.39439972    -0.11300
C453        C  0.26547351  0.92991962  0.39059700    -0.01300
C454        C  0.29977749  0.94656566  0.40173794    -0.06400
H455        H  0.28772813  0.87387547  0.43093562     0.06000
H456        H  0.25944388  0.94595229  0.37991075     0.09400
Br457      Br  0.31960158  0.96558927  0.50051536    -0.06100
Br458      Br  0.42388760  0.94254368  0.41256857    -0.03100
Br459      Br  0.21436910  0.82257788  0.41217008    -0.00200
Br460      Br  0.33504180  0.99678831  0.39454088    -0.04600
C461        C  0.13702415  0.88992714  0.43107480    -0.12000
C462        C  0.10103219  0.87410886  0.42847657     0.03500
C463        C  0.08865618  0.88960867  0.44638772    -0.12600
C464        C  0.11128291  0.92110333  0.46651236     0.18300
C465        C  0.14658742  0.93672453  0.47014534    -0.09600
C466        C  0.15916775  0.92120958  0.45281284    -0.02600
H467        H  0.06138067  0.87767773  0.44334210     0.04800
C468        C  0.09801865  0.93858493  0.48050409     0.20300
H469        H  0.18675598  0.93513766  0.45560142     0.10000
C470        C  0.08599742  0.93368394  0.52056537    -0.15900
C471        C  0.07003062  0.94712172  0.53343489     0.03000
C472        C  0.06599924  0.96578727  0.50580266    -0.11300
C473        C  0.07898161  0.97144319  0.46598500    -0.01300
C474        C  0.09512641  0.95819218  0.45330975    -0.06400
H475        H  0.08795599  0.91833999  0.54146954     0.06000
H476        H  0.07595218  0.98564173  0.44451329     0.09400
Br477      Br  0.17905262  0.98053813  0.49643924    -0.06100
Br478      Br  0.06720386  0.83246162  0.39891565    -0.03100
Br479      Br  0.05101136  0.93597079  0.58781622    -0.00200
Br480      Br  0.11218321  0.96665387  0.39838317    -0.04600
C481        C  0.06365152  0.62411233  0.50874709    -0.12000
C482        C  0.10049015  0.65078298  0.50206512     0.03500
C483        C  0.11426964  0.68172202  0.48000142    -0.12600
C484        C  0.09198551  0.68683879  0.46439227     0.18300
C485        C  0.05529197  0.65973100  0.46949609    -0.09600
C486        C  0.04148356  0.62866182  0.49095310    -0.02600
H487        H  0.14257493  0.70237367  0.47600828     0.04800
C488        C  0.10720359  0.72170805  0.44650904     0.20300
H489        H  0.01315404  0.60886926  0.49585572     0.10000
C490        C  0.10651610  0.72611732  0.40486210    -0.15900
C491        C  0.11835067  0.75830622  0.38813476     0.03000
C492        C  0.13113317  0.78669252  0.41312802    -0.11300
C493        C  0.13231460  0.78217376  0.45468620    -0.01300
C494        C  0.12044122  0.75021778  0.47135343    -0.06400
H495        H  0.09594341  0.70419357  0.38549370     0.06000
H496        H  0.14239123  0.80370041  0.47454191     0.09400
Br497      Br  0.02308277  0.66535557  0.45095206    -0.06100
Br498      Br  0.13325506  0.64633608  0.52161993    -0.03100
Br499      Br  0.11395845  0.76123000  0.33184424    -0.00200
Br500      Br  0.12094219  0.74624534  0.52867929    -0.04600
C501        C  0.12155763  0.78246207  0.23202997    -0.12000
C502        C  0.14221720  0.77499680  0.21509523     0.03500
C503        C  0.12593884  0.74113467  0.20196225    -0.12600
C504        C  0.08930142  0.71403040  0.20593933     0.18300
C505        C  0.06902014  0.72048671  0.22616969    -0.09600
C506        C  0.08502890  0.75455788  0.23818608    -0.02600
H507        H  0.14188662  0.73619458  0.18722114     0.04800
C508        C  0.07310304  0.67985181  0.18742969     0.20300
H509        H  0.06877808  0.75941912  0.25217040     0.10000
C510        C  0.08199908  0.65999657  0.20104601    -0.15900
C511        C  0.07028767  0.62951861  0.18165602     0.03000
C512        C  0.04905916  0.61825302  0.14793616    -0.11300
C513        C  0.03927283  0.63754068  0.13506099    -0.01300
C514        C  0.05154235  0.66839984  0.15404564    -0.06400
H515        H  0.09863932  0.66860297  0.22654355     0.06000
H516        H  0.02340582  0.62952051  0.10892640     0.09400
Br517      Br  0.01963531  0.68356341  0.23862623    -0.06100
Br518      Br  0.19212973  0.80964262  0.20575981    -0.03100
Br519      Br  0.08347809  0.60395821  0.20328074    -0.00200
Br520      Br  0.04074340  0.69555226  0.13085082    -0.04600
C521        C  0.22778123  0.89242702  0.21507722    -0.12000
C522        C  0.25503710  0.90079281  0.23914581     0.03500
C523        C  0.28708672  0.91274452  0.22136800    -0.12600
C524        C  0.29274805  0.91649010  0.17948574     0.18300
C525        C  0.26564729  0.90799255  0.15522948    -0.09600
C526        C  0.23373728  0.89626118  0.17296703    -0.02600
H527        H  0.30788547  0.91951254  0.24034540     0.04800
C528        C  0.32735363  0.93033370  0.16149263     0.20300
H529        H  0.21319866  0.88951954  0.15355700     0.10000
C530        C  0.33067868  0.90723329  0.14370327    -0.15900
C531        C  0.36207841  0.91997583  0.12312421     0.03000
C532        C  0.39085026  0.95667164  0.11948702    -0.11300
C533        C  0.38807189  0.97941049  0.13986790    -0.01300
C534        C  0.35676047  0.96657643  0.16055351    -0.06400
H535        H  0.30848653  0.87917727  0.14521530     0.06000
H536        H  0.40957955  0.00762137  0.13768441     0.09400
Br537      Br  0.27127291  0.91259898  0.09768179    -0.06100
Br538      Br  0.25121222  0.89858698  0.29628081    -0.03100
Br539      Br  0.36416073  0.88584567  0.10155914    -0.00200
Br540      Br  0.35450072  0.99980301  0.18468294    -0.04600
C541        C  0.11901776  0.88028900  0.20867948    -0.12000
C542        C  0.11817762  0.88134194  0.16596998     0.03500
C543        C  0.10282654  0.89349736  0.14707683    -0.12600
C544        C  0.08750957  0.90443899  0.16951135     0.18300
C545        C  0.08648262  0.90182297  0.21160920    -0.09600
C546        C  0.10162982  0.88968913  0.23063132    -0.02600
H547        H  0.10341567  0.89504538  0.11453259     0.04800
C548        C  0.07518818  0.92105462  0.14893784     0.20300
H549        H  0.09905363  0.88798947  0.26283673     0.10000
C550        C  0.03904271  0.90374634  0.14885585    -0.15900
C551        C  0.02732682  0.92061325  0.13309991     0.03000
C552        C  0.05194341  0.95524422  0.11664602    -0.11300
C553        C  0.08797742  0.97216524  0.11618719    -0.01300
C554        C  0.09965100  0.95547228  0.13213816    -0.06400
H555        H  0.02000854  0.87752329  0.16240507     0.06000
H556        H  0.10728861  0.49891088  0.10411605     0.09400
Br557      Br  0.06621976  0.91634691  0.24489708    -0.06100
Br558      Br  0.13749648  0.86672904  0.13094892    -0.03100
Br559      Br  0.97804287  0.89685394  0.13878953    -0.00200
Br560      Br  0.14951727  0.98173935  0.13311577    -0.04600
C561        C  0.38347826  0.64565377  0.69534856    -0.12000
C562        C  0.37946521  0.64014664  0.65327841     0.03500
C563        C  0.39224906  0.62546447  0.63333940    -0.12600
C564        C  0.40993593  0.61690319  0.65421375     0.18300
C565        C  0.41648041  0.62486119  0.69488348    -0.09600
C566        C  0.40411973  0.63962225  0.71466848    -0.02600
H567        H  0.38857665  0.62092099  0.60142342     0.04800
C568        C  0.42373533  0.60171353  0.63359344     0.20300
H569        H  0.41209624  0.64711974  0.74510706     0.10000
C570        C  0.45828857  0.62461235  0.61722478    -0.15900
C571        C  0.47553569  0.61211288  0.60615221     0.03000
C572        C  0.45791131  0.57583018  0.61090337    -0.11300
C573        C  0.42245892  0.55261725  0.62479948    -0.01300
C574        C  0.40552481  0.56536679  0.63664234    -0.06400
H575        H  0.47254972  0.65263881  0.61505651     0.06000
H576        H  0.40845526  0.52472246  0.62844800     0.09400
Br577      Br  0.44290210  0.61642712  0.72477569    -0.06100
Br578      Br  0.35838228  0.65349502  0.62066836    -0.03100
Br579      Br  0.52322249  0.64617561  0.58507216    -0.00200
Br580      Br  0.35850312  0.53273945  0.65978043    -0.04600
C581        C  0.38270749  0.74432301  0.71684140    -0.12000
C582        C  0.41377816  0.77696971  0.72880339     0.03500
C583        C  0.42405847  0.80840473  0.71174525    -0.12600
C584        C  0.40402570  0.80766011  0.68210430     0.18300
C585        C  0.37274579  0.77489682  0.67071299    -0.09600
C586        C  0.36280695  0.74374657  0.68746556    -0.02600
H587        H  0.44883058  0.83333592  0.71972998     0.04800
C588        C  0.41949090  0.83999817  0.65749408     0.20300
H589        H  0.34002277  0.71879669  0.67633713     0.10000
C590        C  0.43064851  0.84167533  0.61783440    -0.15900
C591        C  0.44594501  0.87129079  0.59282214     0.03000
C592        C  0.45157480  0.90094141  0.60773400    -0.11300
C593        C  0.44031673  0.89931512  0.64761473    -0.01300
C594        C  0.42379308  0.86886399  0.67226122    -0.06400
H595        H  0.42748554  0.81961521  0.60622280     0.06000
H596        H  0.44391158  0.92154523  0.65940494     0.09400
Br597      Br  0.34361446  0.77130161  0.63076564    -0.06100
Br598      Br  0.44464572  0.77949327  0.76479817    -0.03100
Br599      Br  0.96009573  0.86968953  0.53925293    -0.00200
Br600      Br  0.40602337  0.86702489  0.72490357    -0.04600
C601        C  0.27559417  0.63250316  0.73290814    -0.12000
C602        C  0.26164256  0.64968473  0.73030720     0.03500
C603        C  0.22623144  0.63037691  0.72157356    -0.12600
C604        C  0.20336696  0.59379204  0.71775196     0.18300
C605        C  0.21597610  0.57608816  0.72551345    -0.09600
C606        C  0.25172094  0.59537976  0.73254685    -0.02600
H607        H  0.21667215  0.64427880  0.71644477     0.04800
C608        C  0.16821406  0.57583507  0.70098482     0.20300
H609        H  0.26099441  0.58116571  0.73715894     0.10000
C610        C  0.16128065  0.56072167  0.66320934    -0.15900
C611        C  0.13191637  0.54993885  0.64224124     0.03000
C612        C  0.10882990  0.55441513  0.65887994    -0.11300
C613        C  0.11484339  0.56799975  0.69751357    -0.01300
C614        C  0.14401078  0.57833448  0.71870380    -0.06400
H615        H  0.17992816  0.55914973  0.64889176     0.06000
H616        H  0.09705929  0.57107807  0.71101483     0.09400
Br617      Br  0.18531467  0.52568492  0.72736687    -0.06100
Br618      Br  0.28781746  0.69890900  0.73714199    -0.03100
Br619      Br  0.12728434  0.53328209  0.58911204    -0.00200
Br620      Br  0.14995501  0.59589596  0.77164600    -0.04600
C621        C  0.36717361  0.63168330  0.92322560    -0.12000
C622        C  0.36887158  0.63242520  0.96585407     0.03500
C623        C  0.38412364  0.62047575  0.98569540    -0.12600
C624        C  0.39701782  0.60666673  0.96419067     0.18300
C625        C  0.39242434  0.60276860  0.92263973    -0.09600
C626        C  0.37717395  0.61441666  0.90290076    -0.02600
H627        H  0.38568216  0.62170837  0.01812171     0.04800
C628        C  0.41244319  0.59344308  0.98528873     0.20300
H629        H  0.37236838  0.60850055  0.87153620     0.10000
C630        C  0.38980867  0.56052753  0.00547857    -0.15900
C631        C  0.40238461  0.54412133  0.01944481     0.03000
C632        C  0.43847653  0.56090337  0.01370616    -0.11300
C633        C  0.46152322  0.59494059  0.99592839    -0.01300
C634        C  0.44873255  0.61106374  0.98140119    -0.06400
H635        H  0.36190600  0.54681739  0.00879432     0.06000
H636        H  0.48925008  0.60827591  0.99137517     0.09400
Br637      Br  0.40538594  0.58028298  0.89147363    -0.06100
Br638      Br  0.34917207  0.64730202  0.99940672    -0.03100
Br639      Br  0.36875163  0.99864167  0.04592906    -0.00200
Br640      Br  0.48138527  0.65632958  0.95446350    -0.04600
C641        C  0.44933048  0.90256748  0.96887552    -0.12000
C642        C  0.45822374  0.88201260  0.98027086     0.03500
C643        C  0.44331778  0.85058013  0.96095498    -0.12600
C644        C  0.41957301  0.83894449  0.93019525     0.18300
C645        C  0.41184332  0.86008764  0.91747621    -0.09600
C646        C  0.42672922  0.89156762  0.93673066    -0.02600
H647        H  0.44907523  0.83422238  0.97122666     0.04800
C648        C  0.39992458  0.80264742  0.91631597     0.20300
H649        H  0.41962164  0.90697779  0.92738114     0.10000
C650        C  0.37635965  0.77471993  0.94395090    -0.15900
C651        C  0.36060943  0.74019091  0.93491636     0.03000
C652        C  0.36847714  0.73309839  0.89769919    -0.11300
C653        C  0.39018410  0.76056919  0.86889841    -0.01300
C654        C  0.40613570  0.79533802  0.87801895    -0.06400
H655        H  0.37095531  0.77999311  0.97321718     0.06000
H656        H  0.39603480  0.75517352  0.84005431     0.09400
Br657      Br  0.37901379  0.84580949  0.87634997    -0.06100
Br658      Br  0.48732697  0.89300243  0.02456275    -0.03100
Br659      Br  0.32856556  0.70369081  0.97446033    -0.00200
Br660      Br  0.43796596  0.83204067  0.83855327    -0.04600
C661        C  0.26490513  0.62609218  0.89038392    -0.12000
C662        C  0.23472216  0.58996319  0.89232218     0.03500
C663        C  0.20268326  0.57888419  0.90905585    -0.12600
C664        C  0.19977791  0.60339635  0.92301852     0.18300
C665        C  0.22891837  0.63959444  0.91689624    -0.09600
C666        C  0.26099609  0.65060953  0.90071629    -0.02600
H667        H  0.18035587  0.55096565  0.91263383     0.04800
C668        C  0.16842815  0.59097498  0.94879320     0.20300
H669        H  0.28347139  0.67853189  0.89837816     0.10000
C670        C  0.17339932  0.59951494  0.98938449    -0.15900
C671        C  0.14500393  0.58648199  0.01623589     0.03000
C672        C  0.10987091  0.56369388  0.00282694    -0.11300
C673        C  0.10504050  0.55568952  0.96171618    -0.01300
C674        C  0.13388672  0.56924262  0.93485580    -0.06400
H675        H  0.19977774  0.61587267  0.00061075     0.06000
H676        H  0.07871731  0.53867522  0.95037498     0.09400
Br677      Br  0.22647082  0.67503967  0.93127627    -0.06100
Br678      Br  0.23572004  0.55493952  0.87153131    -0.03100
Br679      Br  0.15728400  0.59964045  0.07117921    -0.00200
Br680      Br  0.12513656  0.55821803  0.87922677    -0.04600
C681        C  0.85385702  0.14754346  0.89935070     0.86400
C682        C  0.86946977  0.18472803  0.91111222    -0.53800
C683        C  0.85694894  0.19797466  0.89009526     0.09400
C684        C  0.83034173  0.17322976  0.85837594     0.20300
C685        C  0.81367525  0.12539937  0.90338121    -0.54500
C686        C  0.80118904  0.13881930  0.88244662     0.09500
C687        C  0.86261770  0.15252367  0.85386903    -0.54100
C688        C  0.84965479  0.16479649  0.83175795     0.10000
H689        H  0.88906376  0.19960990  0.93371111     0.14600
H690        H  0.82030953  0.18430133  0.84193569     0.00300
H691        H  0.79702391  0.10261142  0.92383450     0.14900
H692        H  0.88088643  0.15014651  0.84082117     0.14600
C693        C  0.86754674  0.15909124  0.71925046     0.86400
C694        C  0.82837361  0.13918846  0.71237852    -0.53800
C695        C  0.81426275  0.15142610  0.73317099     0.09400
C696        C  0.84145792  0.18315339  0.75916920     0.20300
C697        C  0.88642826  0.19776207  0.70949046    -0.54500
C698        C  0.87287177  0.21042147  0.72975925     0.09500
C699        C  0.86776423  0.15637433  0.76524984    -0.54100
C700        C  0.85470894  0.16922859  0.78666714     0.10000
H701        H  0.81281624  0.11650338  0.69347149     0.14600
H702        H  0.83112140  0.19380866  0.77604241     0.00300
H703        H  0.90744273  0.21328855  0.68646610     0.14900
H704        H  0.87312101  0.14102495  0.77956886     0.14600
C705        C  0.63757109  0.36874575  0.22991941     0.86400
C706        C  0.63913301  0.37074901  0.27590725    -0.53800
C707        C  0.65526236  0.36002659  0.29422794     0.09400
C708        C  0.66855833  0.34753493  0.26296156     0.20300
C709        C  0.67630483  0.39014743  0.21597358    -0.54500
C710        C  0.69268034  0.37898637  0.23205779     0.09500
C711        C  0.61986295  0.33044035  0.22232414    -0.54100
C712        C  0.63576147  0.31903537  0.23885301     0.10000
H713        H  0.62821571  0.37992068  0.29269612     0.14600
H714        H  0.68110963  0.33792558  0.27639978     0.00300
H715        H  0.68934308  0.41162796  0.19368938     0.14900
H716        H  0.59668431  0.31369341  0.20442885     0.14600
C717        C  0.65146885  0.37475672  0.40829194     0.86400
C718        C  0.64852032  0.37626048  0.36310731    -0.53800
C719        C  0.65840675  0.36114732  0.33979776     0.09400
C720        C  0.67220264  0.34653108  0.36601483     0.20300
C721        C  0.63157488  0.33613506  0.41935635    -0.54500
C722        C  0.64215303  0.32097534  0.39811737     0.09500
C723        C  0.69024281  0.39241214  0.41303129    -0.54100
C724        C  0.70146431  0.37814529  0.39115271     0.10000
H725        H  0.63964739  0.38952066  0.35179193     0.14600
H726        H  0.68120629  0.33468547  0.34859118     0.00300
H727        H  0.61201020  0.32242257  0.44409972     0.14900
H728        H  0.70792795  0.41366536  0.43285654     0.14600
O729        O  0.93704524  0.43693183  0.99649986    -0.80900
O730        O  0.50808168  0.06665784  0.11112621    -0.65600
O731        O  0.98599395  0.00629885  0.02432930    -1.12200
C732        C  0.54169726  0.47581015  0.10333828     1.05900
O733        O  0.56183694  0.08519145  0.11663624    -0.78800
O734        O  0.58360783  0.06097649  0.06497465    -0.66400
Ni735      Ni  0.93829809  0.47557085  0.00681171     1.34900
C736        C  0.57859159  0.04662828  0.03160611     0.84700
O737        O  0.98068313  0.05802746  0.03995650    -0.79400
O738        O  0.93297210  0.01033364  0.01229967    -0.89700
C739        C  0.53876513  0.08797157  0.12458267     0.84300
O740        O  0.91658622  0.45569235  0.05893987    -0.67900
O741        O  0.55864801  0.00632555  0.11757968    -0.87100
C742        C  0.92125805  0.47246127  0.09017787     0.85100
C743        C  0.95161912  0.04215035  0.02273233     1.06700
H744        H  0.49492610  0.99928005  0.11555795     0.38500
O745        O  0.51134058  0.01428194  0.09353475    -1.09800
O746        O  0.54848498  0.01781396  0.02272911    -0.66500
Ni747      Ni  0.50207241  0.48460849  0.05024653     1.26300
O748        O  0.94987738  0.00376483  0.09525178    -0.66700
O749        O  0.51741791  0.46301637  0.07831280    -0.79000
C750        C  0.95976323  0.43315543  0.99197463     0.84500
O751        O  0.98996884  0.45406104  0.00686822    -0.66200
Ni752      Ni  0.55745705  0.04398464  0.11500329     1.27400
Ni753      Ni  0.99596937  0.03637892  0.06756256     1.26100
H754        H  0.50161148  0.02079503  0.00138083     0.39000
O755        O  0.57931348  0.07233068  0.63050726    -0.80900
O756        O  0.95385930  0.50815579  0.51234055    -0.65600
O757        O  0.51058556  0.02704995  0.60056744    -1.12200
C758        C  0.54497761  0.47590274  0.51670704     1.05900
O759        O  0.93688687  0.45526915  0.50406153    -0.78800
O760        O  0.96306371  0.43054481  0.54554538    -0.66400
Ni761      Ni  0.54213992  0.07384641  0.61978709     1.34900
C762        C  0.97026529  0.43365585  0.58243850     0.84700
O763        O  0.96030818  0.03318624  0.58513937    -0.79400
O764        O  0.00799387  0.08025028  0.61418135    -0.89700
C765        C  0.93334215  0.47786537  0.49762560     0.84300
O766        O  0.56357746  0.09653950  0.56804990    -0.67900
O767        O  0.52035075  0.46652614  0.49378187    -0.87100
C768        C  0.54724174  0.09339451  0.53726353     0.85100
C769        C  0.97633477  0.06211600  0.60301167     1.06700
H770        H  0.52358205  0.02386365  0.51061652     0.38500
O771        O  0.00628286  0.50532795  0.52984227    -1.09800
O772        O  0.49364496  0.46328346  0.59808729    -0.66500
Ni773      Ni  0.53134826  0.00987404  0.57518287     1.26300
O774        O  0.51565121  0.06564947  0.53168909    -0.66700
O775        O  0.55152103  0.49231320  0.54897869    -0.79000
C776        C  0.58000474  0.04742592  0.63569676     0.84500
O777        O  0.55748660  0.01743038  0.62080580    -0.66200
Ni778      Ni  0.97984856  0.46281998  0.50083578     1.27400
Ni779      Ni  0.98259719  0.01889304  0.55656819     1.26100
H780        H  0.99508515  0.01142811  0.62287827     0.39000
C781        C  0.90313355  0.46754914  0.47497241    -0.12000
C782        C  0.89450504  0.45004972  0.43836860     0.03500
C783        C  0.86392885  0.43800502  0.41940911    -0.12600
C784        C  0.84152080  0.44290579  0.43651194     0.18300
C785        C  0.85036605  0.46074092  0.47289813    -0.09600
C786        C  0.88131222  0.47343306  0.49140744    -0.02600
H787        H  0.85724298  0.42419434  0.39156889     0.04800
C788        C  0.80751072  0.42641057  0.41812822     0.20300
H789        H  0.88745302  0.48642193  0.51978846     0.10000
C790        C  0.78165060  0.38960641  0.41912988    -0.15900
C791        C  0.74746796  0.37278946  0.40714671     0.03000
C792        C  0.73856583  0.39304924  0.39439437    -0.11300
C793        C  0.76546153  0.42992868  0.39058728    -0.01300
C794        C  0.79976563  0.44657850  0.40173091    -0.06400
H795        H  0.78772276  0.37389479  0.43094410     0.06000
H796        H  0.75942984  0.44595859  0.37989664     0.09400
Br797      Br  0.81958704  0.46560280  0.50051303    -0.06100
Br798      Br  0.92389054  0.44258236  0.41255922    -0.03100
Br799      Br  0.71436221  0.32259109  0.41218647    -0.00200
Br800      Br  0.83502555  0.49680148  0.39453440    -0.04600
C801        C  0.63700938  0.38993319  0.43104782    -0.12000
C802        C  0.60101727  0.37411219  0.42844206     0.03500
C803        C  0.58863538  0.38960618  0.44635247    -0.12600
C804        C  0.61125711  0.42109954  0.46648002     0.18300
C805        C  0.64656304  0.43672638  0.47011597    -0.09600
C806        C  0.65914890  0.42121572  0.45278639    -0.02600
H807        H  0.56135935  0.37767229  0.44330313     0.04800
C808        C  0.59798561  0.43857368  0.48047187     0.20300
H809        H  0.68673771  0.43514678  0.45557681     0.10000
C810        C  0.58597413  0.43367854  0.52053652    -0.15900
C811        C  0.57000126  0.44710925  0.53340838     0.03000
C812        C  0.56596087  0.46576810  0.50577697    -0.11300
C813        C  0.57892975  0.47141478  0.46595449    -0.01300
C814        C  0.59507406  0.45816471  0.45327470    -0.06400
H815        H  0.58794299  0.41834246  0.54144111     0.06000
H816        H  0.57588912  0.48560434  0.44448249     0.09400
Br817      Br  0.67902227  0.48054212  0.49640840    -0.06100
Br818      Br  0.56719687  0.33247026  0.39886930    -0.03100
Br819      Br  0.55098136  0.43595265  0.58779002    -0.00200
Br820      Br  0.61209997  0.46660233  0.39833739    -0.04600
C821        C  0.56365886  0.12412865  0.50876544    -0.12000
C822        C  0.60049744  0.15080576  0.50208991     0.03500
C823        C  0.61427416  0.18174735  0.48003309    -0.12600
C824        C  0.59198734  0.18686092  0.46442425     0.18300
C825        C  0.55529420  0.15974910  0.46952672    -0.09600
C826        C  0.54148870  0.12867726  0.49097614    -0.02600
H827        H  0.64257915  0.20240173  0.47604157     0.04800
C828        C  0.60720174  0.22172681  0.44653048     0.20300
H829        H  0.51315925  0.10888076  0.49587595     0.10000
C830        C  0.60650619  0.22612527  0.40488226    -0.15900
C831        C  0.61833714  0.25830981  0.38814359     0.03000
C832        C  0.63112584  0.28670362  0.41312609    -0.11300
C833        C  0.63231404  0.28219560  0.45468570    -0.01300
C834        C  0.62044350  0.25024368  0.47136439    -0.06400
H835        H  0.59592943  0.20419608  0.38552166     0.06000
H836        H  0.64239370  0.30372770  0.47453359     0.09400
Br837      Br  0.52308116  0.16537047  0.45098905    -0.06100
Br838      Br  0.63326566  0.14636213  0.52164091    -0.03100
Br839      Br  0.61392973  0.26121771  0.33185354    -0.00200
Br840      Br  0.62095338  0.24628694  0.52869115    -0.04600
C841        C  0.62155389  0.28246435  0.23203191    -0.12000
C842        C  0.64221305  0.27499401  0.21511087     0.03500
C843        C  0.62593286  0.24113053  0.20198154    -0.12600
C844        C  0.58929349  0.21403277  0.20594188     0.18300
C845        C  0.56901039  0.22049495  0.22615291    -0.09600
C846        C  0.58502252  0.25456519  0.23817429    -0.02600
H847        H  0.64188041  0.23618552  0.18725186     0.04800
C848        C  0.57309352  0.17985588  0.18742944     0.20300
H849        H  0.56877121  0.25943104  0.25214506     0.10000
C850        C  0.58195881  0.15998015  0.20107060    -0.15900
C851        C  0.57024092  0.12949889  0.18168392     0.03000
C852        C  0.54903869  0.11825263  0.14794313    -0.11300
C853        C  0.53928258  0.13756077  0.13504230    -0.01300
C854        C  0.55155816  0.16842263  0.15402409    -0.06400
H855        H  0.59857895  0.16857214  0.22658538     0.06000
H856        H  0.52343592  0.12955422  0.10889118     0.09400
Br857      Br  0.51961520  0.18358281  0.23856375    -0.06100
Br858      Br  0.69212680  0.30963702  0.20578073    -0.03100
Br859      Br  0.58338327  0.10390479  0.20333928    -0.00200
Br860      Br  0.54080271  0.19560318  0.13080041    -0.04600
C861        C  0.72778300  0.39243113  0.21506182    -0.12000
C862        C  0.75504111  0.40080644  0.23913367     0.03500
C863        C  0.78709418  0.41276388  0.22135916    -0.12600
C864        C  0.79275680  0.41650503  0.17947678     0.18300
C865        C  0.76565318  0.40799717  0.15521740    -0.09600
C866        C  0.73374008  0.39626095  0.17295177    -0.02600
H867        H  0.80789390  0.41953802  0.24033926     0.04800
C868        C  0.82736351  0.43034701  0.16148648     0.20300
H869        H  0.71320008  0.38951262  0.15353946     0.10000
C870        C  0.83068570  0.40724503  0.14369563    -0.15900
C871        C  0.86208567  0.41998457  0.12311964     0.03000
C872        C  0.89086217  0.45667970  0.11948704    -0.11300
C873        C  0.88808748  0.47941970  0.13987194    -0.01300
C874        C  0.85677477  0.46658854  0.16055305    -0.06400
H875        H  0.80849069  0.37918977  0.14520357     0.06000
H876        H  0.90959846  0.50762996  0.13769251     0.09400
Br877      Br  0.77127844  0.41259547  0.09766938    -0.06100
Br878      Br  0.75121279  0.39860382  0.29626877    -0.03100
Br879      Br  0.86416034  0.38585019  0.10155113    -0.00200
Br880      Br  0.85451907  0.49981860  0.18467976    -0.04600
C881        C  0.61901019  0.38027961  0.20865250    -0.12000
C882        C  0.61818175  0.38134125  0.16594255     0.03500
C883        C  0.60282292  0.39348665  0.14704665    -0.12600
C884        C  0.58748632  0.40440888  0.16947845     0.18300
C885        C  0.58643816  0.40177299  0.21157654    -0.09600
C886        C  0.60159053  0.38964563  0.23060137    -0.02600
H887        H  0.60342349  0.39504469  0.11450229     0.04800
C888        C  0.57517005  0.42102798  0.14890191     0.20300
H889        H  0.59898857  0.38791698  0.26280605     0.10000
C890        C  0.53902657  0.40372817  0.14882447    -0.15900
C891        C  0.52731791  0.42060084  0.13306622     0.03000
C892        C  0.55193934  0.45522722  0.11660128    -0.11300
C893        C  0.58797074  0.47213825  0.11613334    -0.01300
C894        C  0.59963764  0.45544108  0.13209051    -0.06400
H895        H  0.51998893  0.37750850  0.16238104     0.06000
H896        H  0.60729189  0.99894130  0.10417768     0.09400
Br897      Br  0.56614031  0.41626144  0.24486252    -0.06100
Br898      Br  0.63752332  0.36675037  0.13092409    -0.03100
Br899      Br  0.47803869  0.39685868  0.13877217    -0.00200
Br900      Br  0.64950269  0.48170016  0.13306679    -0.04600
C901        C  0.88345596  0.14562434  0.69534309    -0.12000
C902        C  0.87944759  0.14012303  0.65327170     0.03500
C903        C  0.89222829  0.12543804  0.63333188    -0.12600
C904        C  0.90990655  0.11686689  0.65420709     0.18300
C905        C  0.91644469  0.12481675  0.69487930    -0.09600
C906        C  0.90408742  0.13958075  0.71466498    -0.02600
H907        H  0.88856167  0.12090164  0.60141422     0.04800
C908        C  0.92371127  0.10168338  0.63358360     0.20300
H909        H  0.91206065  0.14707241  0.74510533     0.10000
C910        C  0.95826653  0.12458812  0.61722151    -0.15900
C911        C  0.97551999  0.11209542  0.60614925     0.03000
C912        C  0.95789952  0.07581312  0.61089149    -0.11300
C913        C  0.92244493  0.05259414  0.62477959    -0.01300
C914        C  0.90550496  0.06533722  0.63662476    -0.06400
H915        H  0.97252475  0.15261417  0.61506017     0.06000
H916        H  0.90844440  0.02469967  0.62842210     0.09400
Br917      Br  0.94285728  0.11637191  0.72477316    -0.06100
Br918      Br  0.85837773  0.15348574  0.62066106    -0.03100
Br919      Br  0.02321105  0.14616766  0.58508592    -0.00200
Br920      Br  0.85848204  0.03270196  0.65975774    -0.04600
C921        C  0.88270302  0.24430616  0.71681581    -0.12000
C922        C  0.91376741  0.27695680  0.72877919     0.03500
C923        C  0.92404158  0.30838725  0.71171498    -0.12600
C924        C  0.90401052  0.30763491  0.68206450     0.18300
C925        C  0.87273814  0.27486677  0.67066808    -0.09600
C926        C  0.86280355  0.24372096  0.68743026    -0.02600
H927        H  0.94880805  0.33332183  0.71970427     0.04800
C928        C  0.91946902  0.33997490  0.65746075     0.20300
H929        H  0.84002181  0.21876748  0.67630509     0.10000
C930        C  0.93061235  0.34165429  0.61779255    -0.15900
C931        C  0.94591218  0.37127628  0.59279086     0.03000
C932        C  0.95155707  0.40093023  0.60772024    -0.11300
C933        C  0.94031588  0.39930296  0.64761026    -0.01300
C934        C  0.92379221  0.36884717  0.67224808    -0.06400
H935        H  0.92743942  0.31959245  0.60616702     0.06000
H936        H  0.94392487  0.42153655  0.65941539     0.09400
Br937      Br  0.84360750  0.27125703  0.63070733    -0.06100
Br938      Br  0.94463485  0.27949306  0.76478707    -0.03100
Br939      Br  0.46005194  0.36968009  0.53921284    -0.00200
Br940      Br  0.90605401  0.36701325  0.72490972    -0.04600
C941        C  0.77558813  0.13249915  0.73292071    -0.12000
C942        C  0.76163825  0.14968278  0.73032655     0.03500
C943        C  0.72622270  0.13037397  0.72161306    -0.12600
C944        C  0.70335613  0.09378829  0.71779869     0.18300
C945        C  0.71596494  0.07608404  0.72555829    -0.09600
C946        C  0.75171221  0.09537539  0.73257553    -0.02600
H947        H  0.71666270  0.14427561  0.71648762     0.04800
C948        C  0.66820615  0.07583229  0.70102485     0.20300
H949        H  0.76098557  0.08116097  0.73718527     0.10000
C950        C  0.66128752  0.06073869  0.66323892    -0.15900
C951        C  0.63192865  0.04996190  0.64226381     0.03000
C952        C  0.60883216  0.05442358  0.65890629    -0.11300
C953        C  0.61483042  0.06798761  0.69755020    -0.01300
C954        C  0.64399337  0.07831684  0.71874710    -0.06400
H955        H  0.67994263  0.05917806  0.64891990     0.06000
H956        H  0.59703778  0.07105331  0.71105468     0.09400
Br957      Br  0.68529956  0.02568079  0.72742719    -0.06100
Br958      Br  0.78782475  0.19891257  0.73713368    -0.03100
Br959      Br  0.62731608  0.03333226  0.58912273    -0.00200
Br960      Br  0.64991918  0.09584854  0.77170329    -0.04600
C961        C  0.86715605  0.13166934  0.92322334    -0.12000
C962        C  0.86884329  0.13240532  0.96585300     0.03500
C963        C  0.88408195  0.12044459  0.98570167    -0.12600
C964        C  0.89697471  0.10663213  0.96420252     0.18300
C965        C  0.89239537  0.10274369  0.92264916    -0.09600
C966        C  0.87715693  0.11440144  0.90290283    -0.02600
H967        H  0.88563350  0.12167365  0.01812870     0.04800
C968        C  0.91239837  0.09340887  0.98530485     0.20300
H969        H  0.87236168  0.10849210  0.87153591     0.10000
C970        C  0.88976248  0.06047802  0.00546109    -0.15900
C971        C  0.90234573  0.04407834  0.01942589     0.03000
C972        C  0.93844624  0.06088212  0.01371857    -0.11300
C973        C  0.96149126  0.09493260  0.99597491    -0.01300
C974        C  0.94869334  0.11104904  0.98144870    -0.06400
H975        H  0.86185495  0.04675243  0.00875121     0.06000
H976        H  0.98922403  0.10828456  0.99144525     0.09400
Br977      Br  0.90536760  0.08026496  0.89148846    -0.06100
Br978      Br  0.84915076  0.14729393  0.99939705    -0.03100
Br979      Br  0.86879313  0.49870623  0.04599401    -0.00200
Br980      Br  0.98134420  0.15633254  0.95454880    -0.04600
C981        C  0.94930938  0.40255198  0.96887053    -0.12000
C982        C  0.95820440  0.38199821  0.98026482     0.03500
C983        C  0.94329362  0.35056231  0.96095439    -0.12600
C984        C  0.91954344  0.33892310  0.93020043     0.18300
C985        C  0.91180928  0.36006305  0.91748466    -0.09600
C986        C  0.92669961  0.39154618  0.93673363    -0.02600
H987        H  0.94905402  0.33420646  0.97122370     0.04800
C988        C  0.89989990  0.30262861  0.91631630     0.20300
H989        H  0.91958978  0.40695470  0.92738560     0.10000
C990        C  0.87632892  0.27469642  0.94394344    -0.15900
C991        C  0.86058080  0.24016934  0.93490119     0.03000
C992        C  0.86846153  0.23308499  0.89768746    -0.11300
C993        C  0.89017475  0.26056070  0.86889378    -0.01300
C994        C  0.90611987  0.29532676  0.87801963    -0.06400
H995        H  0.87091619  0.27996390  0.97320823     0.06000
H996        H  0.89603331  0.25517074  0.84005098     0.09400
Br997      Br  0.87896891  0.34577616  0.87636937    -0.06100
Br998      Br  0.98731965  0.39299601  0.02454629    -0.03100
Br999      Br  0.82851832  0.20365895  0.97442718    -0.00200
Br1000     Br  0.93794959  0.33203658  0.83856030    -0.04600
C1001       C  0.76489176  0.12608119  0.89038163    -0.12000
C1002       C  0.73471234  0.08995087  0.89235612     0.03500
C1003       C  0.70267926  0.07887769  0.90910253    -0.12600
C1004       C  0.69977169  0.10339611  0.92303333     0.18300
C1005       C  0.72890455  0.13959202  0.91686704    -0.09600
C1006       C  0.76097945  0.15060165  0.90068319    -0.02600
H1007       H  0.68035719  0.05095983  0.91270951     0.04800
C1008       C  0.66842321  0.09098756  0.94880467     0.20300
H1009       H  0.78344994  0.17852440  0.89831464     0.10000
C1010       C  0.67340541  0.09959962  0.98937424    -0.15900
C1011       C  0.64501408  0.08658202  0.01622669     0.03000
C1012       C  0.60987106  0.06372188  0.00284560    -0.11300
C1013       C  0.60503091  0.05565356  0.96175222    -0.01300
C1014       C  0.63387318  0.06920037  0.93488834    -0.06400
H1015       H  0.69979151  0.11600712  0.00058442     0.06000
H1016       H  0.57870208  0.03859128  0.95042675     0.09400
Br1017     Br  0.72644778  0.17504332  0.93117717    -0.06100
Br1018     Br  0.73570395  0.05491687  0.87158809    -0.03100
Br1019     Br  0.65732557  0.09988683  0.07113137    -0.00200
Br1020     Br  0.62510366  0.05809394  0.87927946    -0.04600
C1021       C  0.85386985  0.64755491  0.89935760     0.86400
C1022       C  0.86948041  0.68473785  0.91112363    -0.53800
C1023       C  0.85695951  0.69798536  0.89010917     0.09400
C1024       C  0.83035397  0.67324266  0.85838717     0.20300
C1025       C  0.81368722  0.62540846  0.90338645    -0.54500
C1026       C  0.80120182  0.63883005  0.88245344     0.09500
C1027       C  0.86263179  0.65253920  0.85387578    -0.54100
C1028       C  0.84966738  0.66481152  0.83176665     0.10000
H1029       H  0.88907514  0.69961922  0.93372190     0.14600
H1030       H  0.82032107  0.68431464  0.84194936     0.00300
H1031       H  0.79703429  0.60261708  0.92383488     0.14900
H1032       H  0.88089999  0.65016189  0.84082661     0.14600
C1033       C  0.86756150  0.65911220  0.71925731     0.86400
C1034       C  0.82838743  0.63920206  0.71238394    -0.53800
C1035       C  0.81426912  0.65143242  0.73317510     0.09400
C1036       C  0.84145881  0.68315982  0.75917776     0.20300
C1037       C  0.88643575  0.69778161  0.70950030    -0.54500
C1038       C  0.87287285  0.71043388  0.72977101     0.09500
C1039       C  0.86777836  0.65639359  0.76525639    -0.54100
C1040       C  0.85471651  0.66924091  0.78667508     0.10000
H1041       H  0.81283543  0.61651887  0.69347355     0.14600
H1042       H  0.83111599  0.69380870  0.77605163     0.00300
H1043       H  0.90745268  0.71331341  0.68647956     0.14900
H1044       H  0.87314376  0.64105073  0.77957343     0.14600
C1045       C  0.63757070  0.86874332  0.22994183     0.86400
C1046       C  0.63912583  0.87073347  0.27593096    -0.53800
C1047       C  0.65526008  0.86001456  0.29424537     0.09400
C1048       C  0.66855764  0.84752783  0.26297345     0.20300
C1049       C  0.67630505  0.89014669  0.21599734    -0.54500
C1050       C  0.69268009  0.87898348  0.23207634     0.09500
C1051       C  0.61986290  0.83043841  0.22233718    -0.54100
C1052       C  0.63576226  0.81903157  0.23885977     0.10000
H1053       H  0.62818813  0.87987970  0.29272948     0.14600
H1054       H  0.68110910  0.83791689  0.27640669     0.00300
H1055       H  0.68934317  0.91162885  0.19371528     0.14900
H1056       H  0.59668429  0.81369338  0.20444159     0.14600
C1057       C  0.65147961  0.87474854  0.40831218     0.86400
C1058       C  0.64852515  0.87625067  0.36312818    -0.53800
C1059       C  0.65840866  0.86113641  0.33981451     0.09400
C1060       C  0.67220946  0.84652302  0.36602578     0.20300
C1061       C  0.63158763  0.83612701  0.41937602    -0.54500
C1062       C  0.64216364  0.82096760  0.39813102     0.09500
C1063       C  0.69025475  0.89240468  0.41304348    -0.54100
C1064       C  0.70147408  0.87813785  0.39116062     0.10000
H1065       H  0.63965287  0.88951238  0.35181580     0.14600
H1066       H  0.68121203  0.83467813  0.34859832     0.00300
H1067       H  0.61202438  0.82241375  0.44412065     0.14900
H1068       H  0.70794237  0.91365767  0.43286767     0.14600
O1069       O  0.93705353  0.93693537  0.99650884    -0.80900
O1070       O  0.50810115  0.56666136  0.11111217    -0.65600
O1071       O  0.98599806  0.50629735  0.02431415    -1.12200
C1072       C  0.54169455  0.97582137  0.10338003     1.05900
O1073       O  0.56185212  0.58518570  0.11663107    -0.78800
O1074       O  0.58360828  0.56097713  0.06493580    -0.66400
Ni1075     Ni  0.93829780  0.97556918  0.00681684     1.34900
C1076       C  0.57859080  0.54661343  0.03157855     0.84700
O1077       O  0.98070208  0.55803399  0.03994366    -0.79400
O1078       O  0.93297958  0.51034097  0.01229969    -0.89700
C1079       C  0.53878341  0.58797087  0.12457319     0.84300
O1080       O  0.91657885  0.95568810  0.05894196    -0.67900
O1081       O  0.55866562  0.50632081  0.11752490    -0.87100
C1082       C  0.92124700  0.97245489  0.09018084     0.85100
C1083       C  0.95163689  0.54216100  0.02272428     1.06700
H1084       H  0.49493732  0.49927923  0.11554313     0.38500
O1085       O  0.51134923  0.51427819  0.09351688    -1.09800
O1086       O  0.54848406  0.51779626  0.02270804    -0.66500
Ni1087     Ni  0.50207420  0.98461612  0.05026559     1.26300
O1088       O  0.94989059  0.50377129  0.09524416    -0.66700
O1089       O  0.51742861  0.96303175  0.07833552    -0.79000
C1090       C  0.95977604  0.93316486  0.99198603     0.84500
O1091       O  0.98997891  0.95407108  0.00688667    -0.66200
Ni1092     Ni  0.55747126  0.54397878  0.11497248     1.27400
Ni1093     Ni  0.99598211  0.53637998  0.06754846     1.26100
H1094       H  0.50161410  0.52079107  0.00136359     0.39000
O1095       O  0.57931071  0.57232330  0.63048953    -0.80900
O1096       O  0.95387647  0.00815105  0.51232684    -0.65600
O1097       O  0.51057680  0.52704594  0.60056723    -1.12200
C1098       C  0.54501109  0.97591845  0.51672549     1.05900
O1099       O  0.93691190  0.95526641  0.50405705    -0.78800
O1100       O  0.96309275  0.93055005  0.54554942    -0.66400
Ni1101     Ni  0.54214083  0.57384542  0.61977847     1.34900
C1102       C  0.97028561  0.93366361  0.58244590     0.84700
O1103       O  0.96030496  0.53319265  0.58515507    -0.79400
O1104       O  0.00800131  0.58025869  0.61418059    -0.89700
C1105       C  0.93336037  0.97785746  0.49761869     0.84300
O1106       O  0.56357187  0.59652948  0.56803657    -0.67900
O1107       O  0.52038797  0.96654147  0.49379318    -0.87100
C1108       C  0.54723220  0.59338387  0.53725440     0.85100
C1109       C  0.97633971  0.56212628  0.60302093     1.06700
H1110       H  0.52355715  0.52385475  0.51061240     0.38500
O1111       O  0.00630531  0.00533470  0.52984435    -1.09800
O1112       O  0.49366017  0.96329300  0.59809497    -0.66500
Ni1113     Ni  0.53133135  0.50986512  0.57517291     1.26300
O1114       O  0.51563703  0.56564386  0.53169134    -0.66700
O1115       O  0.55154536  0.99232494  0.54899856    -0.79000
C1116       C  0.58000023  0.54741723  0.63567521     0.84500
O1117       O  0.55747751  0.51742103  0.62078765    -0.66200
Ni1118     Ni  0.97987878  0.96282578  0.50083899     1.27400
Ni1119     Ni  0.98258350  0.51889205  0.55657551     1.26100
H1120       H  0.99508029  0.51142673  0.62288137     0.39000
C1121       C  0.90314526  0.96753174  0.47497092    -0.12000
C1122       C  0.89450951  0.95002216  0.43837348     0.03500
C1123       C  0.86393214  0.93797664  0.41941591    -0.12600
C1124       C  0.84152858  0.94288455  0.43651533     0.18300
C1125       C  0.85037788  0.96072443  0.47289855    -0.09600
C1126       C  0.88132611  0.97341897  0.49140470    -0.02600
H1127       H  0.85724231  0.92416054  0.39157929     0.04800
C1128       C  0.80751936  0.92639334  0.41813079     0.20300
H1129       H  0.88747091  0.98641349  0.51978222     0.10000
C1130       C  0.78165735  0.88958941  0.41912689    -0.15900
C1131       C  0.74747545  0.87277617  0.40714393     0.03000
C1132       C  0.73857524  0.89303939  0.39439973    -0.11300
C1133       C  0.76547302  0.92991883  0.39059662    -0.01300
C1134       C  0.79977704  0.94656487  0.40173740    -0.06400
H1135       H  0.78772751  0.87387479  0.43093612     0.06000
H1136       H  0.75944341  0.94595146  0.37991013     0.09400
Br1137     Br  0.81960187  0.96559007  0.50051420    -0.06100
Br1138     Br  0.92388631  0.94254161  0.41256946    -0.03100
Br1139     Br  0.71436843  0.82257716  0.41217072    -0.00200
Br1140     Br  0.83504150  0.99678745  0.39453948    -0.04600
C1141       C  0.63702383  0.88992674  0.43107475    -0.12000
C1142       C  0.60103193  0.87410863  0.42847636     0.03500
C1143       C  0.58865598  0.88960850  0.44638752    -0.12600
C1144       C  0.61128273  0.92110307  0.46651231     0.18300
C1145       C  0.64658720  0.93672417  0.47014533    -0.09600
C1146       C  0.65916746  0.92120914  0.45281285    -0.02600
H1147       H  0.56138051  0.87767766  0.44334182     0.04800
C1148       C  0.59801854  0.93858474  0.48050415     0.20300
H1149       H  0.68675567  0.93513713  0.45560149     0.10000
C1150       C  0.58599711  0.93368354  0.52056538    -0.15900
C1151       C  0.57003051  0.94712152  0.53343499     0.03000
C1152       C  0.56599947  0.96578740  0.50580290    -0.11300
C1153       C  0.57898205  0.97144354  0.46598530    -0.01300
C1154       C  0.59512670  0.95819239  0.45330998    -0.06400
H1155       H  0.58795541  0.91833933  0.54146944     0.06000
H1156       H  0.57595290  0.98564236  0.44451371     0.09400
Br1157     Br  0.67905245  0.98053772  0.49643931    -0.06100
Br1158     Br  0.56720363  0.83246156  0.39891518    -0.03100
Br1159     Br  0.55101113  0.93597049  0.58781628    -0.00200
Br1160     Br  0.61218390  0.96665450  0.39838353    -0.04600
C1161       C  0.56365098  0.62411168  0.50874687    -0.12000
C1162       C  0.60048957  0.65078207  0.50206439     0.03500
C1163       C  0.61426911  0.68172115  0.48000075    -0.12600
C1164       C  0.59198503  0.68683817  0.46439209     0.18300
C1165       C  0.55529148  0.65973060  0.46949635    -0.09600
C1166       C  0.54148303  0.62866140  0.49095336    -0.02600
H1167       H  0.64257440  0.70237262  0.47600724     0.04800
C1168       C  0.60720317  0.72170745  0.44650887     0.20300
H1169       H  0.51315354  0.60886903  0.49585635     0.10000
C1170       C  0.60651578  0.72611677  0.40486192    -0.15900
C1171       C  0.61835030  0.75830566  0.38813461     0.03000
C1172       C  0.63113254  0.78669187  0.41312792    -0.11300
C1173       C  0.63231386  0.78217306  0.45468611    -0.01300
C1174       C  0.62044064  0.75021712  0.47135330    -0.06400
H1175       H  0.59594323  0.70419307  0.38549350     0.06000
H1176       H  0.64239038  0.80369966  0.47454186     0.09400
Br1177     Br  0.52308238  0.66535548  0.45095285    -0.06100
Br1178     Br  0.63325433  0.64633463  0.52161832    -0.03100
Br1179     Br  0.61395845  0.76122954  0.33184399    -0.00200
Br1180     Br  0.62094173  0.74624468  0.52867914    -0.04600
C1181       C  0.62155752  0.78246208  0.23202964    -0.12000
C1182       C  0.64221701  0.77499679  0.21509468     0.03500
C1183       C  0.62593861  0.74113460  0.20196195    -0.12600
C1184       C  0.58930121  0.71403031  0.20593939     0.18300
C1185       C  0.56902001  0.72048670  0.22616980    -0.09600
C1186       C  0.58502883  0.75455791  0.23818604    -0.02600
H1187       H  0.64188630  0.73619446  0.18722070     0.04800
C1188       C  0.57310274  0.67985166  0.18742991     0.20300
H1189       H  0.56877808  0.75941920  0.25217045     0.10000
C1190       C  0.58199866  0.65999635  0.20104638    -0.15900
C1191       C  0.57028716  0.62951833  0.18165649     0.03000
C1192       C  0.54905878  0.61825282  0.14793652    -0.11300
C1193       C  0.53927254  0.63754053  0.13506124    -0.01300
C1194       C  0.55154207  0.66839969  0.15404584    -0.06400
H1195       H  0.59863884  0.66860273  0.22654397     0.06000
H1196       H  0.52340559  0.62952039  0.10892659     0.09400
Br1197     Br  0.51963520  0.68356346  0.23862649    -0.06100
Br1198     Br  0.69212944  0.80964272  0.20575847    -0.03100
Br1199     Br  0.58347722  0.60395768  0.20328150    -0.00200
Br1200     Br  0.54074314  0.69555212  0.13085099    -0.04600
C1201       C  0.72778115  0.89242699  0.21507735    -0.12000
C1202       C  0.75503688  0.90079241  0.23914591     0.03500
C1203       C  0.78708646  0.91274401  0.22136810    -0.12600
C1204       C  0.79274785  0.91648979  0.17948586     0.18300
C1205       C  0.76564722  0.90799255  0.15522961    -0.09600
C1206       C  0.73373727  0.89626135  0.17296716    -0.02600
H1207       H  0.80788511  0.91951179  0.24034549     0.04800
C1208       C  0.82735344  0.93033342  0.16149278     0.20300
H1209       H  0.71319874  0.88951995  0.15355714     0.10000
C1210       C  0.83067861  0.90723303  0.14370363    -0.15900
C1211       C  0.86207836  0.91997563  0.12312456     0.03000
C1212       C  0.89085005  0.95667146  0.11948711    -0.11300
C1213       C  0.88807159  0.97941030  0.13986784    -0.01300
C1214       C  0.85676017  0.96657618  0.16055348    -0.06400
H1215       H  0.80848655  0.87917698  0.14521583     0.06000
H1216       H  0.90957916  0.00762119  0.13768418     0.09400
Br1217     Br  0.77127289  0.91259907  0.09768193    -0.06100
Br1218     Br  0.75121188  0.89858619  0.29628091    -0.03100
Br1219     Br  0.86416099  0.88584557  0.10155991    -0.00200
Br1220     Br  0.85450027  0.99980270  0.18468279    -0.04600
C1221       C  0.61901799  0.88028939  0.20867967    -0.12000
C1222       C  0.61817745  0.88134191  0.16597018     0.03500
C1223       C  0.60282651  0.89349746  0.14707700    -0.12600
C1224       C  0.58751021  0.90443980  0.16951148     0.18300
C1225       C  0.58648401  0.90182464  0.21160934    -0.09600
C1226       C  0.60163110  0.88969071  0.23063150    -0.02600
H1227       H  0.60341523  0.89504504  0.11453276     0.04800
C1228       C  0.57518874  0.92105530  0.14893788     0.20300
H1229       H  0.59905589  0.88799224  0.26283694     0.10000
C1230       C  0.53904328  0.90374711  0.14885640    -0.15900
C1231       C  0.52732732  0.92061393  0.13310042     0.03000
C1232       C  0.55194382  0.95524470  0.11664599    -0.11300
C1233       C  0.58797781  0.97216564  0.11618668    -0.01300
C1234       C  0.59965148  0.95547277  0.13213769    -0.06400
H1235       H  0.52000920  0.87752422  0.16240606     0.06000
H1236       H  0.60728839  0.49891080  0.10411641     0.09400
Br1237     Br  0.56622244  0.91634998  0.24489712    -0.06100
Br1238     Br  0.63749583  0.86672850  0.13094914    -0.03100
Br1239     Br  0.47804345  0.89685480  0.13879075    -0.00200
Br1240     Br  0.64951775  0.98173972  0.13311462    -0.04600
C1241       C  0.88347810  0.64565355  0.69534879    -0.12000
C1242       C  0.87946513  0.64014651  0.65327862     0.03500
C1243       C  0.89224903  0.62546441  0.63333957    -0.12600
C1244       C  0.90993583  0.61690305  0.65421392     0.18300
C1245       C  0.91648015  0.62486086  0.69488372    -0.09600
C1246       C  0.90411945  0.63962189  0.71466874    -0.02600
H1247       H  0.88857670  0.62092102  0.60142357     0.04800
C1248       C  0.92373532  0.60171349  0.63359357     0.20300
H1249       H  0.91209587  0.64711926  0.74510736     0.10000
C1250       C  0.95828852  0.62461239  0.61722480    -0.15900
C1251       C  0.97553575  0.61211304  0.60615220     0.03000
C1252       C  0.95791154  0.57583040  0.61090353    -0.11300
C1253       C  0.92245918  0.55261737  0.62479972    -0.01300
C1254       C  0.90552493  0.56536678  0.63664253    -0.06400
H1255       H  0.97254955  0.65263882  0.61505643     0.06000
H1256       H  0.90845563  0.52472261  0.62844830     0.09400
Br1257     Br  0.94290167  0.61642659  0.72477596    -0.06100
Br1258     Br  0.85838220  0.65349490  0.62066858    -0.03100
Br1259     Br  0.02322242  0.64617579  0.58507177    -0.00200
Br1260     Br  0.85850322  0.53273931  0.65978053    -0.04600
C1261       C  0.88270743  0.74432284  0.71684150    -0.12000
C1262       C  0.91377817  0.77696957  0.72880330     0.03500
C1263       C  0.92405851  0.80840454  0.71174494    -0.12600
C1264       C  0.90402563  0.80765981  0.68210405     0.18300
C1265       C  0.87274561  0.77489650  0.67071301    -0.09600
C1266       C  0.86280679  0.74374630  0.68746573    -0.02600
H1267       H  0.94883066  0.83333575  0.71972952     0.04800
C1268       C  0.91949071  0.83999781  0.65749379     0.20300
H1269       H  0.84002253  0.71879638  0.67633748     0.10000
C1270       C  0.93064826  0.84167497  0.61783408    -0.15900
C1271       C  0.94594475  0.87129046  0.59282185     0.03000
C1272       C  0.95157457  0.90094107  0.60773379    -0.11300
C1273       C  0.94031648  0.89931474  0.64761452    -0.01300
C1274       C  0.92379283  0.86886359  0.67226096    -0.06400
H1275       H  0.92748528  0.81961485  0.60622244     0.06000
H1276       H  0.94391130  0.92154482  0.65940477     0.09400
Br1277     Br  0.84361403  0.77130119  0.63076596    -0.06100
Br1278     Br  0.94464569  0.77949326  0.76479828    -0.03100
Br1279     Br  0.46009603  0.86968983  0.53925327    -0.00200
Br1280     Br  0.90602302  0.86702437  0.72490329    -0.04600
C1281       C  0.77559406  0.63250305  0.73290820    -0.12000
C1282       C  0.76164245  0.64968462  0.73030721     0.03500
C1283       C  0.72623136  0.63037680  0.72157340    -0.12600
C1284       C  0.70336691  0.59379194  0.71775169     0.18300
C1285       C  0.71597603  0.57608806  0.72551325    -0.09600
C1286       C  0.75172085  0.59537966  0.73254682    -0.02600
H1287       H  0.71667206  0.64427868  0.71644461     0.04800
C1288       C  0.66821402  0.57583497  0.70098451     0.20300
H1289       H  0.76099430  0.58116560  0.73715897     0.10000
C1290       C  0.66128074  0.56072185  0.66320887    -0.15900
C1291       C  0.63191642  0.54993905  0.64224082     0.03000
C1292       C  0.60882975  0.55441496  0.65887977    -0.11300
C1293       C  0.61484313  0.56799932  0.69751354    -0.01300
C1294       C  0.64401059  0.57833410  0.71870369    -0.06400
H1295       H  0.67992836  0.55915015  0.64889114     0.06000
H1296       H  0.59705891  0.57107739  0.71101498     0.09400
Br1297     Br  0.68531461  0.52568483  0.72736663    -0.06100
Br1298     Br  0.78781729  0.69890885  0.73714226    -0.03100
Br1299     Br  0.62728464  0.53328287  0.58911132    -0.00200
Br1300     Br  0.64995474  0.59589531  0.77164603    -0.04600
C1301       C  0.86717372  0.63168331  0.92322570    -0.12000
C1302       C  0.86887155  0.63242507  0.96585418     0.03500
C1303       C  0.88412366  0.62047566  0.98569551    -0.12600
C1304       C  0.89701804  0.60666686  0.96419076     0.18300
C1305       C  0.89242481  0.60276896  0.92263977    -0.09600
C1306       C  0.87717433  0.61441692  0.90290080    -0.02600
H1307       H  0.88568202  0.62170813  0.01812183     0.04800
C1308       C  0.91244328  0.59344309  0.98528885     0.20300
H1309       H  0.87236892  0.60850094  0.87153621     0.10000
C1310       C  0.88980864  0.56052744  0.00547845    -0.15900
C1311       C  0.90238449  0.54412116  0.01944473     0.03000
C1312       C  0.93847642  0.56090321  0.01370630    -0.11300
C1313       C  0.96152322  0.59494053  0.99592881    -0.01300
C1314       C  0.94873266  0.61106378  0.98140162    -0.06400
H1315       H  0.86190596  0.54681730  0.00879400     0.06000
H1316       H  0.98925011  0.60827587  0.99137581     0.09400
Br1317     Br  0.90538683  0.58028374  0.89147357    -0.06100
Br1318     Br  0.84917182  0.64730164  0.99940685    -0.03100
Br1319     Br  0.86875161  0.99864173  0.04592927    -0.00200
Br1320     Br  0.98138558  0.65632985  0.95446447    -0.04600
C1321       C  0.94933030  0.90256730  0.96887546    -0.12000
C1322       C  0.95822414  0.88201280  0.98027017     0.03500
C1323       C  0.94331804  0.85058025  0.96095437    -0.12600
C1324       C  0.91957259  0.83894419  0.93019533     0.18300
C1325       C  0.91184231  0.86008699  0.91747690    -0.09600
C1326       C  0.92672836  0.89156703  0.93673125    -0.02600
H1327       H  0.94907595  0.83422277  0.97122558     0.04800
C1328       C  0.89992412  0.80264708  0.91631621     0.20300
H1329       H  0.91962033  0.90697691  0.92738219     0.10000
C1330       C  0.87635958  0.77471969  0.94395139    -0.15900
C1331       C  0.86060930  0.74019064  0.93491684     0.03000
C1332       C  0.86847668  0.73309806  0.89769949    -0.11300
C1333       C  0.89018319  0.76056876  0.86889847    -0.01300
C1334       C  0.90613473  0.79533758  0.87801895    -0.06400
H1335       H  0.87095555  0.77999294  0.97321781     0.06000
H1336       H  0.89603356  0.75517302  0.84005418     0.09400
Br1337     Br  0.87901178  0.84580821  0.87635173    -0.06100
Br1338     Br  0.98732844  0.89300324  0.02456111    -0.03100
Br1339     Br  0.82856563  0.70369061  0.97446096    -0.00200
Br1340     Br  0.93796406  0.83204007  0.83855272    -0.04600
C1341       C  0.76490502  0.62609188  0.89038440    -0.12000
C1342       C  0.73472204  0.58996291  0.89232287     0.03500
C1343       C  0.70268325  0.57888398  0.90905683    -0.12600
C1344       C  0.69977802  0.60339621  0.92301954     0.18300
C1345       C  0.72891846  0.63959428  0.91689706    -0.09600
C1346       C  0.76099608  0.65060929  0.90071688    -0.02600
H1347       H  0.68035584  0.55096546  0.91263492     0.04800
C1348       C  0.66842828  0.59097493  0.94879418     0.20300
H1349       H  0.78347139  0.67853165  0.89837860     0.10000
C1350       C  0.67339939  0.59951480  0.98938550    -0.15900
C1351       C  0.64500394  0.58648189  0.01623680     0.03000
C1352       C  0.60987098  0.56369392  0.00282770    -0.11300
C1353       C  0.60504066  0.55568969  0.96171691    -0.01300
C1354       C  0.63388692  0.56924276  0.93485663    -0.06400
H1355       H  0.69977777  0.61587242  0.00061185     0.06000
H1356       H  0.57871751  0.53867552  0.95037560     0.09400
Br1357     Br  0.72647098  0.67503956  0.93127702    -0.06100
Br1358     Br  0.73571971  0.55493916  0.87153178    -0.03100
Br1359     Br  0.65728383  0.59964015  0.07118020    -0.00200
Br1360     Br  0.62513692  0.55821842  0.87922753    -0.04600
loop_ 
_geom_bond_atom_site_label_1 
_geom_bond_atom_site_label_2 
_geom_bond_distance 
_geom_bond_site_symmetry_2 
_ccdc_geom_bond_type 
C1            C2   1.537       .  S
C1            C7   1.537       .  S
C1            C5   1.539       .  S
C1          C281   1.551       .  S
C2            H9   1.086       .  S
C2            C3   1.368       .  D
C3            C4   1.539       .  S
C3          C312   1.476       .  S
C4            C8   1.544       .  S
C4            C6   1.543       .  S
C4           H10   1.108       .  S
C5           H11   1.086       .  S
C5            C6   1.372       .  D
C6          C321   1.495       .  S
C7           H12   1.076       .  S
C7            C8   1.368       .  D
C8           C20   1.505       .  S
C13          C14   1.539       .  S
C13          C19   1.537       .  S
C13          C17   1.528       .  S
C13         C221   1.546       .  S
C14          H21   1.085       .  S
C14          C15   1.376       .  D
C15          C16   1.547       .  S
C15         C261   1.501       .  S
C16          C20   1.543       .  S
C16          C18   1.548       .  S
C16          H22   1.102       .  S
C17          H23   1.087       .  S
C17          C18   1.362       .  D
C18         C241   1.480       .  S
C19          H24   1.075       .  S
C19          C20   1.370       .  D
C25          C26   1.535       .  S
C25          C31   1.527       .  S
C25          C29   1.536       .  S
C25         C201   1.554       .  S
C26          H33   1.065       .  S
C26          C27   1.375       .  D
C27          C28   1.559       .  S
C27          C39   1.526       .  S
C28          C32   1.553       .  S
C28          C30   1.558       .  S
C28          H34   1.108       .  S
C29          H35   1.086       .  S
C29          C30   1.371       .  D
C30         C181   1.503       .  S
C31          H36   1.087       .  S
C31          C32   1.366       .  D
C32         C161   1.492       .  S
C37          C38   1.521       .  S
C37          C43   1.534       .  S
C37          C41   1.525       .  S
C37         C121   1.538       .  S
C38          H45   1.079       .  S
C38          C39   1.376       .  D
C39          C40   1.564       .  S
C40          C44   1.555       .  S
C40          C42   1.558       .  S
C40          H46   1.108       .  S
C41          H47   1.087       .  S
C41          C42   1.365       .  D
C42         C152   1.494       .  S
C43          H48   1.080       .  S
C43          C44   1.364       .  D
C44         C112   1.490       .  S
O49         Ni55   1.926   1_556  S
O49          C70   1.272       .  A
O50        Ni753   1.911   1_455  S
O50          C59   1.268       .  A
O51         Ni73   1.919       .  S
O51        Ni395   1.925   1_545  S
O51       Ni1087   1.928   1_545  S
O51         H754   0.970       .  S
C52          O69   1.276       .  A
C52         O401   1.273       .  A
C52         C212   1.485       .  S
O53         Ni72   1.927       .  S
O53          C59   1.269       .  A
O54         Ni72   1.903       .  S
O54          C56   1.267       .  A
Ni55         O60   1.909       .  S
Ni55        O398   1.931       .  S
Ni55        O391   1.925       .  S
C56          O66   1.280       .  A
C56         C332   1.504       .  S
O57         Ni73   1.922       .  S
O57          C63   1.273       .  A
O58        Ni395   1.931   1_545  S
O58          C63   1.272       .  A
C59         C172   1.480       .  S
O60          C62   1.269       .  A
O61         Ni72   1.923       .  S
O61         C392   1.273   1_545  A
C62         O408   1.277       .  A
C62         C192   1.494       .  S
C63         C292   1.486       .  S
H64          O65   0.965   1_665  S
O65         Ni72   1.919       .  S
O65        Ni753   1.918   1_455  S
O65        Ni407   1.915   1_545  S
O66        Ni407   1.958   1_545  S
Ni67         O69   1.929       .  S
Ni67        O406   1.958       .  S
Ni67        O751   1.915   1_455  S
Ni67       O1071   1.928   1_455  S
Ni67        O405   1.915       .  S
O68         Ni73   1.948       .  S
O68         C402   1.277   1_545  A
C70          O71   1.270   1_556  A
C70         C301   1.486       .  S
O71        Ni747   1.915       .  S
Ni73        O730   1.911       .  S
Ni73        O745   1.918       .  S
H74         O731   0.970   1_455  S
O75         Ni81   1.949       .  S
O75          C96   1.278       .  A
O76        Ni439   1.907       .  S
O76          C85   1.267       .  A
O77         Ni81   1.911       .  S
O77         Ni93   1.911       .  S
O77        Ni779   1.908   1_455  S
O77         H780   0.967   1_455  S
C78          O95   1.272       .  A
C78          O87   1.273       .  A
C78         C132   1.471       .  S
O79         Ni98   1.923       .  S
O79          C85   1.270       .  A
O80         Ni98   1.912       .  S
O80          C82   1.271       .  A
Ni81         O86   1.921       .  S
Ni81        O764   1.943       .  S
C82         O772   1.275       .  A
C82         C252   1.485       .  S
O83         Ni99   1.910       .  S
O83          C89   1.273       .  A
O84        Ni761   1.943       .  S
O84          C89   1.278       .  A
C85         C101   1.472       .  S
O86          C88   1.273       .  A
O87        Ni778   1.916   1_455  S
C88          O94   1.274       .  A
C88         C141   1.493       .  S
C89         C232   1.482       .  S
H90        O1111   0.967       .  S
O91         Ni98   1.910       .  S
O91        Ni439   1.912       .  S
O91       Ni1113   1.905       .  S
O91        H1110   0.967       .  S
O92        Ni433   1.935   1_655  S
O92         C762   1.275       .  A
Ni93         O97   1.904       .  S
Ni93        O432   1.935   1_445  S
Ni93        O435   1.915   1_545  S
Ni93       O1111   1.905       .  S
O94        Ni779   1.938   1_455  S
O95        Ni433   1.915       .  S
C96          O97   1.268       .  A
C96         C272   1.484       .  S
Ni98        O767   1.916       .  S
Ni99        O416   1.907       .  S
Ni99        O774   1.938       .  S
Ni99        O757   1.908       .  S
Ni99        O431   1.912       .  S
H100        O757   0.967       .  S
C101        C102   1.411       .  A
C101        C106   1.401       .  A
C102        C103   1.398       .  A
C102       Br118   1.920       .  S
C103        C104   1.401       .  A
C103        H107   1.084       .  S
C104        C108   1.477       .  S
C104        C105   1.411       .  A
C105        C106   1.398       .  A
C105       Br117   1.920       .  S
C106        H109   1.084       .  S
C108        C110   1.401       .  A
C108        C114   1.405       .  A
C110        C111   1.399       .  A
C110        H115   1.084       .  S
C111        C112   1.411       .  A
C111       Br119   1.909       .  S
C112        C113   1.410       .  A
C113        C114   1.397       .  A
C113        H116   1.084       .  S
C114       Br120   1.919       .  S
C121        C122   1.424       .  A
C121        C126   1.416       .  A
C122        C123   1.397       .  A
C122       Br138   1.925       .  S
C123        C124   1.396       .  A
C123        H127   1.084       .  S
C124        C128   1.471       .  S
C124        C125   1.399       .  A
C125        C126   1.397       .  A
C125       Br137   1.919       .  S
C126        H129   1.074       .  S
C128        C130   1.400       .  A
C128        C134   1.406       .  A
C130        C131   1.398       .  A
C130        H135   1.083       .  S
C131        C132   1.413       .  A
C131       Br139   1.922       .  S
C132        C133   1.403       .  A
C133        C134   1.396       .  A
C133        H136   1.083       .  S
C134       Br140   1.919       .  S
C141        C142   1.414       .  A
C141        C146   1.410       .  A
C142        C143   1.406       .  A
C142       Br158   1.918       .  S
C143        C144   1.405       .  A
C143        H147   1.083       .  S
C144        C148   1.486       .  S
C144        C145   1.406       .  A
C145        C146   1.400       .  A
C145       Br157   1.920       .  S
C146        H149   1.083       .  S
C148        C150   1.406       .  A
C148        C154   1.406       .  A
C150        C151   1.407       .  A
C150        H155   1.083       .  S
C151        C152   1.409       .  A
C151       Br159   1.907       .  S
C152        C153   1.408       .  A
C153        C154   1.396       .  A
C153        H156   1.083       .  S
C154       Br160   1.919       .  S
C161        C162   1.413       .  A
C161        C166   1.409       .  A
C162        C163   1.400       .  A
C162       Br178   1.911       .  S
C163        C164   1.402       .  A
C163        H167   1.084       .  S
C164        C168   1.484       .  S
C164        C165   1.407       .  A
C165        C166   1.400       .  A
C165       Br177   1.919       .  S
C166        H169   1.084       .  S
C168        C170   1.402       .  A
C168        C174   1.412       .  A
C170        C171   1.400       .  A
C170        H175   1.084       .  S
C171        C172   1.413       .  A
C171       Br179   1.921       .  S
C172        C173   1.403       .  A
C173        C174   1.401       .  A
C173        H176   1.084       .  S
C174       Br180   1.920       .  S
C181        C182   1.412       .  A
C181        C186   1.410       .  A
C182        C183   1.404       .  A
C182       Br198   1.901       .  S
C183        C184   1.401       .  A
C183        H187   1.083       .  S
C184        C188   1.487       .  S
C184        C185   1.407       .  A
C185        C186   1.402       .  A
C185       Br197   1.918       .  S
C186        H189   1.083       .  S
C188        C190   1.403       .  A
C188        C194   1.407       .  A
C190        C191   1.405       .  A
C190        H195   1.083       .  S
C191        C192   1.416       .  A
C191       Br199   1.920       .  S
C192        C193   1.409       .  A
C193        C194   1.402       .  A
C193        H196   1.083       .  S
C194       Br200   1.918       .  S
C201        C202   1.425       .  A
C201        C206   1.419       .  A
C202        C203   1.406       .  A
C202       Br218   1.923       .  S
C203        C204   1.402       .  A
C203        H207   1.083       .  S
C204        C208   1.488       .  S
C204        C205   1.402       .  A
C205        C206   1.399       .  A
C205       Br217   1.921       .  S
C206        H209   1.072       .  S
C208        C210   1.407       .  A
C208        C214   1.408       .  A
C210        C211   1.407       .  A
C210        H215   1.083       .  S
C211        C212   1.411       .  A
C211       Br219   1.918   1_455  S
C212        C213   1.406       .  A
C213        C214   1.400       .  A
C213        H556   1.084       .  S
C214       Br220   1.920       .  S
H216        C553   1.084       .  S
C221        C222   1.423       .  A
C221        C226   1.415       .  A
C222        C223   1.408       .  A
C222       Br238   1.922       .  S
C223        C224   1.402       .  A
C223        H227   1.083       .  S
C224        C228   1.479       .  S
C224        C225   1.400       .  A
C225        C226   1.393       .  A
C225       Br237   1.922       .  S
C226        H229   1.076       .  S
C228        C230   1.400       .  A
C228        C234   1.408       .  A
C230        C231   1.399       .  A
C230        H235   1.084       .  S
C231        C232   1.415       .  A
C231       Br239   1.920       .  S
C232        C233   1.405       .  A
C233        C234   1.402       .  A
C233        H236   1.083       .  S
C234       Br240   1.917       .  S
C241        C242   1.408       .  A
C241        C246   1.400       .  A
C242        C243   1.406       .  A
C242       Br258   1.917       .  S
C243        C244   1.407       .  A
C243        H247   1.083       .  S
C244        C248   1.484       .  S
C244        C245   1.408       .  A
C245        C246   1.396       .  A
C245       Br257   1.919       .  S
C246        H249   1.083       .  S
C248        C250   1.400       .  A
C248        C254   1.409       .  A
C250        C251   1.394       .  A
C250        H255   1.084       .  S
C251        C252   1.415       .  A
C251       Br939   1.922       .  S
C252        C253   1.409       .  A
C253        C254   1.408       .  A
C253        H256   1.083       .  S
C254       Br260   1.917       .  S
Br259       C931   1.922       .  S
C261        C262   1.418       .  A
C261        C266   1.411       .  A
C262        C263   1.399       .  A
C262       Br278   1.913       .  S
C263        C264   1.401       .  A
C263        H267   1.084       .  S
C264        C268   1.487       .  S
C264        C265   1.406       .  A
C265        C266   1.400       .  A
C265       Br277   1.917       .  S
C266        H269   1.083       .  S
C268        C270   1.404       .  A
C268        C274   1.410       .  A
C270        C271   1.401       .  A
C270        H275   1.084       .  S
C271        C272   1.411       .  A
C271       Br279   1.916       .  S
C272        C273   1.405       .  A
C273        C274   1.403       .  A
C273        H276   1.083       .  S
C274       Br280   1.918       .  S
C281        C282   1.423       .  A
C281        C286   1.416       .  A
C282        C283   1.409       .  A
C282       Br298   1.918       .  S
C283        C284   1.403       .  A
C283        H287   1.083   1_556  S
C284        C288   1.485       .  S
C284        C285   1.402       .  A
C285        C286   1.396       .  A
C285       Br297   1.921       .  S
C286        H289   1.077       .  S
C288        C290   1.400   1_556  A
C288        C294   1.411       .  A
C290        C291   1.401       .  A
C290        H295   1.084       .  S
C291        C292   1.416       .  A
C291       Br639   1.920   1_545  S
C292        C293   1.404   1_554  A
C293        C294   1.404       .  A
C293        H296   1.083       .  S
C294       Br300   1.918       .  S
Br299       C631   1.920       .  S
C301        C302   1.412       .  A
C301        C306   1.410       .  A
C302        C303   1.400       .  A
C302       Br318   1.917   1_556  S
C303        C304   1.404       .  A
C303        H307   1.084       .  S
C304        C308   1.481       .  S
C304        C305   1.406       .  A
C305        C306   1.401       .  A
C305       Br317   1.919       .  S
C306        H309   1.083       .  S
C308        C310   1.402       .  A
C308        C314   1.410       .  A
C310        C311   1.395       .  A
C310        H315   1.084       .  S
C311        C312   1.406       .  A
C311       Br319   1.917       .  S
C312        C313   1.403       .  A
C313        C314   1.404       .  A
C313        H316   1.083       .  S
C314       Br320   1.918       .  S
C321        C322   1.412       .  A
C321        C326   1.405       .  A
C322        C323   1.406       .  A
C322       Br338   1.919       .  S
C323        C324   1.406       .  A
C323        H327   1.083       .  S
C324        C328   1.494       .  S
C324        C325   1.411       .  A
C325        C326   1.402       .  A
C325       Br337   1.918       .  S
C326        H329   1.083       .  S
C328        C330   1.399       .  A
C328        C334   1.410       .  A
C330        C331   1.400   1_556  A
C330        H335   1.084   1_556  S
C331        C332   1.424       .  A
C331       Br339   1.925       .  S
C332        C333   1.411   1_554  A
C333        C334   1.410       .  A
C333        H336   1.083       .  S
C334       Br340   1.915       .  S
C341        C342   1.537       .  S
C341        C347   1.537       .  S
C341        C345   1.539       .  S
C341        C621   1.551       .  S
C342        H349   1.086       .  S
C342        C343   1.368       .  D
C343        C344   1.539       .  S
C343        C652   1.476       .  S
C344        C348   1.544       .  S
C344        C346   1.543       .  S
C344        H350   1.108       .  S
C345        H351   1.086       .  S
C345        C346   1.372       .  D
C346        C661   1.495       .  S
C347        H352   1.076       .  S
C347        C348   1.368       .  D
C348        C360   1.505       .  S
C353        C354   1.539       .  S
C353        C359   1.537       .  S
C353        C357   1.528       .  S
C353        C561   1.546       .  S
C354        H361   1.085       .  S
C354        C355   1.376       .  D
C355        C356   1.547       .  S
C355        C601   1.501       .  S
C356        C360   1.543       .  S
C356        C358   1.548       .  S
C356        H362   1.102       .  S
C357        H363   1.087       .  S
C357        C358   1.362       .  D
C358        C581   1.480       .  S
C359        H364   1.075       .  S
C359        C360   1.370       .  D
C365        C366   1.535       .  S
C365        C371   1.527       .  S
C365        C369   1.536       .  S
C365        C541   1.554       .  S
C366        H373   1.065       .  S
C366        C367   1.375       .  D
C367        C368   1.559       .  S
C367        C379   1.526       .  S
C368        C372   1.553       .  S
C368        C370   1.558       .  S
C368        H374   1.108       .  S
C369        H375   1.086       .  S
C369        C370   1.371       .  D
C370        C521   1.503       .  S
C371        H376   1.087       .  S
C371        C372   1.366       .  D
C372        C501   1.492       .  S
C377        C378   1.521       .  S
C377        C383   1.534       .  S
C377        C381   1.525       .  S
C377        C461   1.538       .  S
C378        H385   1.079       .  S
C378        C379   1.376       .  D
C379        C380   1.564       .  S
C380        C384   1.555       .  S
C380        C382   1.558       .  S
C380        H386   1.108       .  S
C381        H387   1.087       .  S
C381        C382   1.365       .  D
C382        C492   1.494       .  S
C383        H388   1.080       .  S
C383        C384   1.364       .  D
C384        C452   1.490       .  S
O389       Ni395   1.926   1_556  S
O389        C410   1.272       .  A
O390      Ni1093   1.911   1_455  S
O390        C399   1.268       .  A
O391       Ni413   1.919       .  S
O391       Ni747   1.928       .  S
O391       H1094   0.970       .  S
C392        O409   1.276       .  A
C392        C552   1.485       .  S
O393       Ni412   1.927       .  S
O393        C399   1.269       .  A
O394       Ni412   1.903       .  S
O394        C396   1.267       .  A
Ni395       O400   1.909       .  S
C396        O406   1.280       .  A
C396        C672   1.504       .  S
O397       Ni413   1.922       .  S
O397        C403   1.273       .  A
O398        C403   1.272       .  A
C399        C512   1.480       .  S
O400        C402   1.269       .  A
O401       Ni412   1.924       .  S
C402        C532   1.494       .  S
C403        C632   1.486       .  S
H404        O405   0.965   1_655  S
O405      Ni1093   1.918   1_455  S
O405       Ni412   1.919       .  S
Ni407      O1091   1.915   1_455  S
Ni407       O409   1.929       .  S
Ni407       O731   1.928   1_465  S
O408       Ni413   1.948       .  S
C410        O411   1.270   1_556  A
C410        C641   1.486       .  S
O411      Ni1087   1.915       .  S
Ni413      O1070   1.911       .  S
Ni413      O1085   1.918       .  S
H414       O1071   0.970   1_455  S
O415       Ni421   1.949       .  S
O415        C436   1.278       .  A
O416        C425   1.267   1_545  A
O417       Ni421   1.911       .  S
O417      Ni1119   1.908   1_455  S
O417       Ni433   1.911       .  S
O417       H1120   0.967   1_455  S
C418        O435   1.272       .  A
C418        O427   1.273       .  A
C418        C472   1.471       .  S
O419       Ni438   1.923       .  S
O419        C425   1.270       .  A
O420       Ni438   1.912       .  S
O420        C422   1.271       .  A
Ni421      O1104   1.943       .  S
Ni421       O426   1.921       .  S
C422       O1112   1.275       .  A
C422        C592   1.485       .  S
O423       Ni439   1.910       .  S
O423        C429   1.273       .  A
O424      Ni1101   1.943       .  S
O424        C429   1.278       .  A
C425        C441   1.472       .  S
O426        C428   1.273       .  A
O427      Ni1118   1.916   1_455  S
C428        O434   1.274       .  A
C428        C481   1.493       .  S
C429        C572   1.482       .  S
H430        O771   0.967       .  S
O431       Ni773   1.905       .  S
O431       Ni438   1.910   1_545  S
O431        H770   0.967       .  S
O432       C1102   1.275       .  A
Ni433       O437   1.904       .  S
Ni433       O771   1.905       .  S
O434      Ni1119   1.938   1_455  S
C436        O437   1.268       .  A
C436        C612   1.484       .  S
Ni438      O1107   1.916       .  S
Ni439      O1114   1.938       .  S
Ni439      O1097   1.908       .  S
H440       O1097   0.967       .  S
C441        C442   1.411       .  A
C441        C446   1.401       .  A
C442        C443   1.398       .  A
C442       Br458   1.920       .  S
C443        C444   1.401       .  A
C443        H447   1.084       .  S
C444        C448   1.477       .  S
C444        C445   1.411       .  A
C445        C446   1.398       .  A
C445       Br457   1.920       .  S
C446        H449   1.084       .  S
C448        C450   1.401       .  A
C448        C454   1.405       .  A
C450        C451   1.399       .  A
C450        H455   1.084       .  S
C451        C452   1.411       .  A
C451       Br459   1.909       .  S
C452        C453   1.410       .  A
C453        C454   1.397       .  A
C453        H456   1.084       .  S
C454       Br460   1.919       .  S
C461        C462   1.424       .  A
C461        C466   1.416       .  A
C462        C463   1.397       .  A
C462       Br478   1.925       .  S
C463        C464   1.396       .  A
C463        H467   1.084       .  S
C464        C468   1.471       .  S
C464        C465   1.399       .  A
C465        C466   1.397       .  A
C465       Br477   1.919       .  S
C466        H469   1.074       .  S
C468        C470   1.400       .  A
C468        C474   1.406       .  A
C470        C471   1.398       .  A
C470        H475   1.083       .  S
C471        C472   1.413       .  A
C471       Br479   1.922       .  S
C472        C473   1.403       .  A
C473        C474   1.396       .  A
C473        H476   1.083       .  S
C474       Br480   1.919       .  S
C481        C482   1.414       .  A
C481        C486   1.410       .  A
C482        C483   1.406       .  A
C482       Br498   1.918       .  S
C483        C484   1.405       .  A
C483        H487   1.083       .  S
C484        C488   1.486       .  S
C484        C485   1.406       .  A
C485        C486   1.400       .  A
C485       Br497   1.920       .  S
C486        H489   1.083       .  S
C488        C490   1.406       .  A
C488        C494   1.406       .  A
C490        C491   1.407       .  A
C490        H495   1.083       .  S
C491        C492   1.409       .  A
C491       Br499   1.907       .  S
C492        C493   1.408       .  A
C493        C494   1.396       .  A
C493        H496   1.083       .  S
C494       Br500   1.919       .  S
C501        C502   1.413       .  A
C501        C506   1.409       .  A
C502        C503   1.400       .  A
C502       Br518   1.911       .  S
C503        C504   1.402       .  A
C503        H507   1.084       .  S
C504        C508   1.484       .  S
C504        C505   1.407       .  A
C505        C506   1.400       .  A
C505       Br517   1.919       .  S
C506        H509   1.084       .  S
C508        C510   1.402       .  A
C508        C514   1.412       .  A
C510        C511   1.400       .  A
C510        H515   1.084       .  S
C511        C512   1.413       .  A
C511       Br519   1.921       .  S
C512        C513   1.403       .  A
C513        C514   1.401       .  A
C513        H516   1.084       .  S
C514       Br520   1.920       .  S
C521        C522   1.412       .  A
C521        C526   1.410       .  A
C522        C523   1.404       .  A
C522       Br538   1.901       .  S
C523        C524   1.401       .  A
C523        H527   1.083       .  S
C524        C528   1.487       .  S
C524        C525   1.407       .  A
C525        C526   1.402       .  A
C525       Br537   1.918       .  S
C526        H529   1.083       .  S
C528        C530   1.403       .  A
C528        C534   1.407       .  A
C530        C531   1.405       .  A
C530        H535   1.083       .  S
C531        C532   1.416       .  A
C531       Br539   1.920       .  S
C532        C533   1.409       .  A
C533        C534   1.402       .  A
C533        H536   1.083   1_565  S
C534       Br540   1.918       .  S
C541        C542   1.425       .  A
C541        C546   1.419       .  A
C542        C543   1.406       .  A
C542       Br558   1.923       .  S
C543        C544   1.402       .  A
C543        H547   1.083       .  S
C544        C548   1.488       .  S
C544        C545   1.402       .  A
C545        C546   1.399       .  A
C545       Br557   1.921       .  S
C546        H549   1.072       .  S
C548        C550   1.407       .  A
C548        C554   1.408       .  A
C550        C551   1.407       .  A
C550        H555   1.083       .  S
C551        C552   1.411       .  A
C551       Br559   1.918   1_455  S
C552        C553   1.406       .  A
C553        C554   1.400       .  A
C554       Br560   1.920       .  S
C561        C562   1.423       .  A
C561        C566   1.415       .  A
C562        C563   1.408       .  A
C562       Br578   1.922       .  S
C563        C564   1.402       .  A
C563        H567   1.083       .  S
C564        C568   1.479       .  S
C564        C565   1.400       .  A
C565        C566   1.393       .  A
C565       Br577   1.922       .  S
C566        H569   1.076       .  S
C568        C570   1.400       .  A
C568        C574   1.408       .  A
C570        C571   1.399       .  A
C570        H575   1.084       .  S
C571        C572   1.415       .  A
C571       Br579   1.920       .  S
C572        C573   1.405       .  A
C573        C574   1.402       .  A
C573        H576   1.083       .  S
C574       Br580   1.917       .  S
C581        C582   1.408       .  A
C581        C586   1.400       .  A
C582        C583   1.406       .  A
C582       Br598   1.917       .  S
C583        C584   1.407       .  A
C583        H587   1.083       .  S
C584        C588   1.484       .  S
C584        C585   1.408       .  A
C585        C586   1.396       .  A
C585       Br597   1.919       .  S
C586        H589   1.083       .  S
C588        C590   1.400       .  A
C588        C594   1.409       .  A
C590        C591   1.394       .  A
C590        H595   1.084       .  S
C591        C592   1.415       .  A
C591      Br1279   1.922       .  S
C592        C593   1.409       .  A
C593        C594   1.408       .  A
C593        H596   1.083       .  S
C594       Br600   1.917       .  S
Br599      C1271   1.922       .  S
C601        C602   1.418       .  A
C601        C606   1.411       .  A
C602        C603   1.399       .  A
C602       Br618   1.913       .  S
C603        C604   1.401       .  A
C603        H607   1.084       .  S
C604        C608   1.487       .  S
C604        C605   1.406       .  A
C605        C606   1.400       .  A
C605       Br617   1.917       .  S
C606        H609   1.083       .  S
C608        C610   1.404       .  A
C608        C614   1.410       .  A
C610        C611   1.401       .  A
C610        H615   1.084       .  S
C611        C612   1.411       .  A
C611       Br619   1.916       .  S
C612        C613   1.405       .  A
C613        C614   1.403       .  A
C613        H616   1.083       .  S
C614       Br620   1.918       .  S
C621        C622   1.423       .  A
C621        C626   1.416       .  A
C622        C623   1.409       .  A
C622       Br638   1.918       .  S
C623        C624   1.403       .  A
C623        H627   1.083   1_556  S
C624        C628   1.485       .  S
C624        C625   1.402       .  A
C625        C626   1.396       .  A
C625       Br637   1.921       .  S
C626        H629   1.077       .  S
C628        C630   1.400   1_556  A
C628        C634   1.411       .  A
C630        C631   1.401       .  A
C630        H635   1.084       .  S
C631        C632   1.416       .  A
C632        C633   1.404   1_554  A
C633        C634   1.404       .  A
C633        H636   1.083       .  S
C634       Br640   1.918       .  S
C641        C642   1.412       .  A
C641        C646   1.410       .  A
C642        C643   1.400       .  A
C642       Br658   1.917   1_556  S
C643        C644   1.404       .  A
C643        H647   1.084       .  S
C644        C648   1.481       .  S
C644        C645   1.406       .  A
C645        C646   1.401       .  A
C645       Br657   1.919       .  S
C646        H649   1.083       .  S
C648        C650   1.402       .  A
C648        C654   1.410       .  A
C650        C651   1.395       .  A
C650        H655   1.084       .  S
C651        C652   1.406       .  A
C651       Br659   1.917       .  S
C652        C653   1.403       .  A
C653        C654   1.404       .  A
C653        H656   1.083       .  S
C654       Br660   1.918       .  S
C661        C662   1.412       .  A
C661        C666   1.405       .  A
C662        C663   1.406       .  A
C662       Br678   1.919       .  S
C663        C664   1.406       .  A
C663        H667   1.083       .  S
C664        C668   1.494       .  S
C664        C665   1.411       .  A
C665        C666   1.402       .  A
C665       Br677   1.918       .  S
C666        H669   1.083       .  S
C668        C670   1.399       .  A
C668        C674   1.410       .  A
C670        C671   1.400   1_556  A
C670        H675   1.084   1_556  S
C671        C672   1.424       .  A
C671       Br679   1.925       .  S
C672        C673   1.411   1_554  A
C673        C674   1.410       .  A
C673        H676   1.083       .  S
C674       Br680   1.915       .  S
C681        C682   1.537       .  S
C681        C687   1.537       .  S
C681        C685   1.539       .  S
C681        C961   1.551       .  S
C682        H689   1.086       .  S
C682        C683   1.368       .  D
C683        C684   1.539       .  S
C683        C992   1.476       .  S
C684        C688   1.544       .  S
C684        C686   1.543       .  S
C684        H690   1.108       .  S
C685        H691   1.086       .  S
C685        C686   1.372       .  D
C686       C1001   1.495       .  S
C687        H692   1.076       .  S
C687        C688   1.368       .  D
C688        C700   1.505       .  S
C693        C694   1.539       .  S
C693        C699   1.537       .  S
C693        C697   1.528       .  S
C693        C901   1.546       .  S
C694        H701   1.085       .  S
C694        C695   1.376       .  D
C695        C696   1.547       .  S
C695        C941   1.501       .  S
C696        C700   1.543       .  S
C696        C698   1.548       .  S
C696        H702   1.102       .  S
C697        H703   1.087       .  S
C697        C698   1.362       .  D
C698        C921   1.480       .  S
C699        H704   1.075       .  S
C699        C700   1.370       .  D
C705        C706   1.535       .  S
C705        C711   1.527       .  S
C705        C709   1.536       .  S
C705        C881   1.554       .  S
C706        H713   1.065       .  S
C706        C707   1.375       .  D
C707        C708   1.559       .  S
C707        C719   1.526       .  S
C708        C712   1.553       .  S
C708        C710   1.558       .  S
C708        H714   1.108       .  S
C709        H715   1.086       .  S
C709        C710   1.371       .  D
C710        C861   1.503       .  S
C711        H716   1.087       .  S
C711        C712   1.366       .  D
C712        C841   1.492       .  S
C717        C718   1.521       .  S
C717        C723   1.534       .  S
C717        C721   1.525       .  S
C717        C801   1.538       .  S
C718        H725   1.079       .  S
C718        C719   1.376       .  D
C719        C720   1.564       .  S
C720        C724   1.555       .  S
C720        C722   1.558       .  S
C720        H726   1.108       .  S
C721        H727   1.087       .  S
C721        C722   1.365       .  D
C722        C832   1.494       .  S
C723        H728   1.080       .  S
C723        C724   1.364       .  D
C724        C792   1.490       .  S
O729       Ni735   1.926   1_556  S
O729        C750   1.272       .  A
O730        C739   1.268       .  A
O731      Ni1075   1.925   1_545  S
O731       Ni753   1.919       .  S
C732        O749   1.276       .  A
C732       O1081   1.273       .  A
C732        C892   1.485       .  S
O733       Ni752   1.927       .  S
O733        C739   1.269       .  A
O734       Ni752   1.903       .  S
O734        C736   1.267       .  A
Ni735      O1078   1.931       .  S
Ni735       O740   1.909       .  S
Ni735      O1071   1.925       .  S
C736        O746   1.280       .  A
C736       C1012   1.504       .  S
O737       Ni753   1.922       .  S
O737        C743   1.273       .  A
O738      Ni1075   1.931   1_545  S
O738        C743   1.272       .  A
C739        C852   1.480       .  S
O740        C742   1.269       .  A
O741       Ni752   1.923       .  S
O741       C1072   1.273   1_545  A
C742       O1088   1.277       .  A
C742        C872   1.494       .  S
C743        C972   1.486       .  S
H744        O745   0.965   1_565  S
O745      Ni1087   1.915   1_545  S
O745       Ni752   1.919       .  S
O746      Ni1087   1.958   1_545  S
Ni747      O1086   1.958       .  S
Ni747       O749   1.929       .  S
Ni747      O1085   1.915       .  S
O748       Ni753   1.948       .  S
O748       C1082   1.277   1_545  A
C750        O751   1.270   1_556  A
C750        C981   1.486       .  S
O755       Ni761   1.949       .  S
O755        C776   1.278       .  A
O756      Ni1119   1.907       .  S
O756        C765   1.267       .  A
O757       Ni761   1.911       .  S
O757       Ni773   1.911       .  S
C758        O775   1.272       .  A
C758        O767   1.273       .  A
C758        C812   1.471       .  S
O759       Ni778   1.923       .  S
O759        C765   1.270       .  A
O760       Ni778   1.912       .  S
O760        C762   1.271       .  A
Ni761       O766   1.921       .  S
C762        C932   1.485       .  S
O763       Ni779   1.910       .  S
O763        C769   1.273       .  A
O764        C769   1.278   1_455  A
C765        C781   1.472       .  S
O766        C768   1.273       .  A
C768        O774   1.274       .  A
C768        C821   1.493       .  S
C769        C912   1.482       .  S
O771      Ni1119   1.912   1_455  S
O771       Ni778   1.910   1_455  S
O772      Ni1113   1.935       .  S
Ni773      O1112   1.935   1_545  S
Ni773       O777   1.904       .  S
Ni773      O1115   1.915   1_545  S
O775      Ni1113   1.915       .  S
C776        O777   1.268       .  A
C776        C952   1.484       .  S
Ni779      O1096   1.907       .  S
Ni779      O1111   1.912   1_655  S
C781        C782   1.411       .  A
C781        C786   1.401       .  A
C782        C783   1.398       .  A
C782       Br798   1.920       .  S
C783        C784   1.401       .  A
C783        H787   1.084       .  S
C784        C788   1.477       .  S
C784        C785   1.411       .  A
C785        C786   1.398       .  A
C785       Br797   1.920       .  S
C786        H789   1.084       .  S
C788        C790   1.401       .  A
C788        C794   1.405       .  A
C790        C791   1.399       .  A
C790        H795   1.084       .  S
C791        C792   1.411       .  A
C791       Br799   1.909       .  S
C792        C793   1.410       .  A
C793        C794   1.397       .  A
C793        H796   1.084       .  S
C794       Br800   1.919       .  S
C801        C802   1.424       .  A
C801        C806   1.416       .  A
C802        C803   1.397       .  A
C802       Br818   1.925       .  S
C803        C804   1.396       .  A
C803        H807   1.084       .  S
C804        C808   1.471       .  S
C804        C805   1.399       .  A
C805        C806   1.397       .  A
C805       Br817   1.919       .  S
C806        H809   1.074       .  S
C808        C810   1.400       .  A
C808        C814   1.406       .  A
C810        C811   1.398       .  A
C810        H815   1.083       .  S
C811        C812   1.413       .  A
C811       Br819   1.922       .  S
C812        C813   1.403       .  A
C813        C814   1.396       .  A
C813        H816   1.083       .  S
C814       Br820   1.919       .  S
C821        C822   1.414       .  A
C821        C826   1.410       .  A
C822        C823   1.406       .  A
C822       Br838   1.918       .  S
C823        C824   1.405       .  A
C823        H827   1.083       .  S
C824        C828   1.486       .  S
C824        C825   1.406       .  A
C825        C826   1.400       .  A
C825       Br837   1.920       .  S
C826        H829   1.083       .  S
C828        C830   1.406       .  A
C828        C834   1.406       .  A
C830        C831   1.407       .  A
C830        H835   1.083       .  S
C831        C832   1.409       .  A
C831       Br839   1.907       .  S
C832        C833   1.408       .  A
C833        C834   1.396       .  A
C833        H836   1.083       .  S
C834       Br840   1.919       .  S
C841        C842   1.413       .  A
C841        C846   1.409       .  A
C842        C843   1.400       .  A
C842       Br858   1.911       .  S
C843        C844   1.402       .  A
C843        H847   1.084       .  S
C844        C848   1.484       .  S
C844        C845   1.407       .  A
C845        C846   1.400       .  A
C845       Br857   1.919       .  S
C846        H849   1.084       .  S
C848        C850   1.402       .  A
C848        C854   1.412       .  A
C850        C851   1.400       .  A
C850        H855   1.084       .  S
C851        C852   1.413       .  A
C851       Br859   1.921       .  S
C852        C853   1.403       .  A
C853        C854   1.401       .  A
C853        H856   1.084       .  S
C854       Br860   1.920       .  S
C861        C862   1.412       .  A
C861        C866   1.410       .  A
C862        C863   1.404       .  A
C862       Br878   1.901       .  S
C863        C864   1.401       .  A
C863        H867   1.083       .  S
C864        C868   1.487       .  S
C864        C865   1.407       .  A
C865        C866   1.402       .  A
C865       Br877   1.918       .  S
C866        H869   1.083       .  S
C868        C870   1.403       .  A
C868        C874   1.407       .  A
C870        C871   1.405       .  A
C870        H875   1.083       .  S
C871        C872   1.416       .  A
C871       Br879   1.920       .  S
C872        C873   1.409       .  A
C873        C874   1.402       .  A
C873        H876   1.083       .  S
C874       Br880   1.918       .  S
C881        C882   1.425       .  A
C881        C886   1.419       .  A
C882        C883   1.406       .  A
C882       Br898   1.923       .  S
C883        C884   1.402       .  A
C883        H887   1.083       .  S
C884        C888   1.488       .  S
C884        C885   1.402       .  A
C885        C886   1.399       .  A
C885       Br897   1.921       .  S
C886        H889   1.072       .  S
C888        C890   1.407       .  A
C888        C894   1.408       .  A
C890        C891   1.407       .  A
C890        H895   1.083       .  S
C891        C892   1.411       .  A
C891       Br899   1.918       .  S
C892        C893   1.406       .  A
C893        C894   1.400       .  A
C893       H1236   1.084       .  S
C894       Br900   1.920       .  S
H896       C1233   1.084       .  S
C901        C902   1.423       .  A
C901        C906   1.415       .  A
C902        C903   1.408       .  A
C902       Br918   1.922       .  S
C903        C904   1.402       .  A
C903        H907   1.083       .  S
C904        C908   1.479       .  S
C904        C905   1.400       .  A
C905        C906   1.393       .  A
C905       Br917   1.922       .  S
C906        H909   1.076       .  S
C908        C910   1.400       .  A
C908        C914   1.408       .  A
C910        C911   1.399       .  A
C910        H915   1.084       .  S
C911        C912   1.415       .  A
C911       Br919   1.920   1_655  S
C912        C913   1.405       .  A
C913        C914   1.402       .  A
C913        H916   1.083       .  S
C914       Br920   1.917       .  S
C921        C922   1.408       .  A
C921        C926   1.400       .  A
C922        C923   1.406       .  A
C922       Br938   1.917       .  S
C923        C924   1.407       .  A
C923        H927   1.083       .  S
C924        C928   1.484       .  S
C924        C925   1.408       .  A
C925        C926   1.396       .  A
C925       Br937   1.919       .  S
C926        H929   1.083       .  S
C928        C930   1.400       .  A
C928        C934   1.409       .  A
C930        C931   1.394       .  A
C930        H935   1.084       .  S
C931        C932   1.415       .  A
C932        C933   1.409       .  A
C933        C934   1.408       .  A
C933        H936   1.083       .  S
C934       Br940   1.917       .  S
C941        C942   1.418       .  A
C941        C946   1.411       .  A
C942        C943   1.399       .  A
C942       Br958   1.913       .  S
C943        C944   1.401       .  A
C943        H947   1.084       .  S
C944        C948   1.487       .  S
C944        C945   1.406       .  A
C945        C946   1.400       .  A
C945       Br957   1.917       .  S
C946        H949   1.083       .  S
C948        C950   1.404       .  A
C948        C954   1.410       .  A
C950        C951   1.401       .  A
C950        H955   1.084       .  S
C951        C952   1.411       .  A
C951       Br959   1.916       .  S
C952        C953   1.405       .  A
C953        C954   1.403       .  A
C953        H956   1.083       .  S
C954       Br960   1.918       .  S
C961        C962   1.423       .  A
C961        C966   1.416       .  A
C962        C963   1.409       .  A
C962       Br978   1.918       .  S
C963        C964   1.403       .  A
C963        H967   1.083   1_556  S
C964        C968   1.485       .  S
C964        C965   1.402       .  A
C965        C966   1.396       .  A
C965       Br977   1.921       .  S
C966        H969   1.077       .  S
C968        C970   1.400   1_556  A
C968        C974   1.411       .  A
C970        C971   1.401       .  A
C970        H975   1.084       .  S
C971        C972   1.416       .  A
C971      Br1319   1.920   1_545  S
C972        C973   1.404   1_554  A
C973        C974   1.404       .  A
C973        H976   1.083       .  S
C974       Br980   1.918       .  S
Br979      C1311   1.920       .  S
C981        C982   1.412       .  A
C981        C986   1.410       .  A
C982        C983   1.400       .  A
C982       Br998   1.917   1_556  S
C983        C984   1.404       .  A
C983        H987   1.084       .  S
C984        C988   1.481       .  S
C984        C985   1.406       .  A
C985        C986   1.401       .  A
C985       Br997   1.919       .  S
C986        H989   1.083       .  S
C988        C990   1.402       .  A
C988        C994   1.410       .  A
C990        C991   1.395       .  A
C990        H995   1.084       .  S
C991        C992   1.406       .  A
C991       Br999   1.917       .  S
C992        C993   1.403       .  A
C993        C994   1.404       .  A
C993        H996   1.083       .  S
C994      Br1000   1.918       .  S
C1001      C1002   1.412       .  A
C1001      C1006   1.405       .  A
C1002      C1003   1.406       .  A
C1002     Br1018   1.919       .  S
C1003      C1004   1.406       .  A
C1003      H1007   1.083       .  S
C1004      C1008   1.494       .  S
C1004      C1005   1.411       .  A
C1005      C1006   1.402       .  A
C1005     Br1017   1.918       .  S
C1006      H1009   1.083       .  S
C1008      C1010   1.399       .  A
C1008      C1014   1.410       .  A
C1010      C1011   1.400   1_556  A
C1010      H1015   1.084   1_556  S
C1011      C1012   1.424       .  A
C1011     Br1019   1.925       .  S
C1012      C1013   1.411   1_554  A
C1013      C1014   1.410       .  A
C1013      H1016   1.083       .  S
C1014     Br1020   1.915       .  S
C1021      C1022   1.537       .  S
C1021      C1027   1.537       .  S
C1021      C1025   1.539       .  S
C1021      C1301   1.551       .  S
C1022      H1029   1.086       .  S
C1022      C1023   1.368       .  D
C1023      C1024   1.539       .  S
C1023      C1332   1.476       .  S
C1024      C1028   1.544       .  S
C1024      C1026   1.543       .  S
C1024      H1030   1.108       .  S
C1025      H1031   1.086       .  S
C1025      C1026   1.372       .  D
C1026      C1341   1.495       .  S
C1027      H1032   1.076       .  S
C1027      C1028   1.368       .  D
C1028      C1040   1.505       .  S
C1033      C1034   1.539       .  S
C1033      C1039   1.537       .  S
C1033      C1037   1.528       .  S
C1033      C1241   1.546       .  S
C1034      H1041   1.085       .  S
C1034      C1035   1.376       .  D
C1035      C1036   1.547       .  S
C1035      C1281   1.501       .  S
C1036      C1040   1.543       .  S
C1036      C1038   1.548       .  S
C1036      H1042   1.102       .  S
C1037      H1043   1.087       .  S
C1037      C1038   1.362       .  D
C1038      C1261   1.480       .  S
C1039      H1044   1.075       .  S
C1039      C1040   1.370       .  D
C1045      C1046   1.535       .  S
C1045      C1051   1.527       .  S
C1045      C1049   1.536       .  S
C1045      C1221   1.554       .  S
C1046      H1053   1.065       .  S
C1046      C1047   1.375       .  D
C1047      C1048   1.559       .  S
C1047      C1059   1.526       .  S
C1048      C1052   1.553       .  S
C1048      C1050   1.558       .  S
C1048      H1054   1.108       .  S
C1049      H1055   1.086       .  S
C1049      C1050   1.371       .  D
C1050      C1201   1.503       .  S
C1051      H1056   1.087       .  S
C1051      C1052   1.366       .  D
C1052      C1181   1.492       .  S
C1057      C1058   1.521       .  S
C1057      C1063   1.534       .  S
C1057      C1061   1.525       .  S
C1057      C1141   1.538       .  S
C1058      H1065   1.079       .  S
C1058      C1059   1.376       .  D
C1059      C1060   1.564       .  S
C1060      C1064   1.555       .  S
C1060      C1062   1.558       .  S
C1060      H1066   1.108       .  S
C1061      H1067   1.087       .  S
C1061      C1062   1.365       .  D
C1062      C1172   1.494       .  S
C1063      H1068   1.080       .  S
C1063      C1064   1.364       .  D
C1064      C1132   1.490       .  S
O1069     Ni1075   1.926   1_556  S
O1069      C1090   1.272       .  A
O1070      C1079   1.268       .  A
O1071     Ni1093   1.919       .  S
C1072      O1089   1.276       .  A
C1072      C1232   1.485       .  S
O1073     Ni1092   1.927       .  S
O1073      C1079   1.269       .  A
O1074     Ni1092   1.903       .  S
O1074      C1076   1.267       .  A
Ni1075     O1080   1.909       .  S
C1076      O1086   1.280       .  A
C1076      C1352   1.504       .  S
O1077     Ni1093   1.922       .  S
O1077      C1083   1.273       .  A
O1078      C1083   1.272       .  A
C1079      C1192   1.480       .  S
O1080      C1082   1.269       .  A
O1081     Ni1092   1.924       .  S
C1082      C1212   1.494       .  S
C1083      C1312   1.486       .  S
H1084      O1085   0.965       .  S
O1085     Ni1092   1.919       .  S
Ni1087     O1089   1.929       .  S
O1088     Ni1093   1.948       .  S
C1090      O1091   1.270   1_556  A
C1090      C1321   1.486       .  S
O1095     Ni1101   1.949       .  S
O1095      C1116   1.278       .  A
O1096      C1105   1.267   1_545  A
O1097     Ni1101   1.911       .  S
O1097     Ni1113   1.911       .  S
C1098      O1115   1.272       .  A
C1098      O1107   1.273       .  A
C1098      C1152   1.471       .  S
O1099     Ni1118   1.923       .  S
O1099      C1105   1.270       .  A
O1100     Ni1118   1.912       .  S
O1100      C1102   1.271       .  A
Ni1101     O1106   1.921       .  S
C1102      C1272   1.485       .  S
O1103     Ni1119   1.910       .  S
O1103      C1109   1.273       .  A
O1104      C1109   1.278   1_455  A
C1105      C1121   1.472       .  S
O1106      C1108   1.273       .  A
C1108      O1114   1.274       .  A
C1108      C1161   1.493       .  S
C1109      C1252   1.482       .  S
O1111     Ni1118   1.910   1_445  S
Ni1113     O1117   1.904       .  S
C1116      O1117   1.268       .  A
C1116      C1292   1.484       .  S
C1121      C1122   1.411       .  A
C1121      C1126   1.401       .  A
C1122      C1123   1.398       .  A
C1122     Br1138   1.920       .  S
C1123      C1124   1.401       .  A
C1123      H1127   1.084       .  S
C1124      C1128   1.477       .  S
C1124      C1125   1.411       .  A
C1125      C1126   1.398       .  A
C1125     Br1137   1.920       .  S
C1126      H1129   1.084       .  S
C1128      C1130   1.401       .  A
C1128      C1134   1.405       .  A
C1130      C1131   1.399       .  A
C1130      H1135   1.084       .  S
C1131      C1132   1.411       .  A
C1131     Br1139   1.909       .  S
C1132      C1133   1.410       .  A
C1133      C1134   1.397       .  A
C1133      H1136   1.084       .  S
C1134     Br1140   1.919       .  S
C1141      C1142   1.424       .  A
C1141      C1146   1.416       .  A
C1142      C1143   1.397       .  A
C1142     Br1158   1.925       .  S
C1143      C1144   1.396       .  A
C1143      H1147   1.084       .  S
C1144      C1148   1.471       .  S
C1144      C1145   1.399       .  A
C1145      C1146   1.397       .  A
C1145     Br1157   1.919       .  S
C1146      H1149   1.074       .  S
C1148      C1150   1.400       .  A
C1148      C1154   1.406       .  A
C1150      C1151   1.398       .  A
C1150      H1155   1.083       .  S
C1151      C1152   1.413       .  A
C1151     Br1159   1.922       .  S
C1152      C1153   1.403       .  A
C1153      C1154   1.396       .  A
C1153      H1156   1.083       .  S
C1154     Br1160   1.919       .  S
C1161      C1162   1.414       .  A
C1161      C1166   1.410       .  A
C1162      C1163   1.406       .  A
C1162     Br1178   1.918       .  S
C1163      C1164   1.405       .  A
C1163      H1167   1.083       .  S
C1164      C1168   1.486       .  S
C1164      C1165   1.406       .  A
C1165      C1166   1.400       .  A
C1165     Br1177   1.920       .  S
C1166      H1169   1.083       .  S
C1168      C1170   1.406       .  A
C1168      C1174   1.406       .  A
C1170      C1171   1.407       .  A
C1170      H1175   1.083       .  S
C1171      C1172   1.409       .  A
C1171     Br1179   1.907       .  S
C1172      C1173   1.408       .  A
C1173      C1174   1.396       .  A
C1173      H1176   1.083       .  S
C1174     Br1180   1.919       .  S
C1181      C1182   1.413       .  A
C1181      C1186   1.409       .  A
C1182      C1183   1.400       .  A
C1182     Br1198   1.911       .  S
C1183      C1184   1.402       .  A
C1183      H1187   1.084       .  S
C1184      C1188   1.484       .  S
C1184      C1185   1.407       .  A
C1185      C1186   1.400       .  A
C1185     Br1197   1.919       .  S
C1186      H1189   1.084       .  S
C1188      C1190   1.402       .  A
C1188      C1194   1.412       .  A
C1190      C1191   1.400       .  A
C1190      H1195   1.084       .  S
C1191      C1192   1.413       .  A
C1191     Br1199   1.921       .  S
C1192      C1193   1.403       .  A
C1193      C1194   1.401       .  A
C1193      H1196   1.084       .  S
C1194     Br1200   1.920       .  S
C1201      C1202   1.412       .  A
C1201      C1206   1.410       .  A
C1202      C1203   1.404       .  A
C1202     Br1218   1.901       .  S
C1203      C1204   1.401       .  A
C1203      H1207   1.083       .  S
C1204      C1208   1.487       .  S
C1204      C1205   1.407       .  A
C1205      C1206   1.402       .  A
C1205     Br1217   1.918       .  S
C1206      H1209   1.083       .  S
C1208      C1210   1.403       .  A
C1208      C1214   1.407       .  A
C1210      C1211   1.405       .  A
C1210      H1215   1.083       .  S
C1211      C1212   1.416       .  A
C1211     Br1219   1.920       .  S
C1212      C1213   1.409       .  A
C1213      C1214   1.402       .  A
C1213      H1216   1.083   1_565  S
C1214     Br1220   1.918       .  S
C1221      C1222   1.425       .  A
C1221      C1226   1.419       .  A
C1222      C1223   1.406       .  A
C1222     Br1238   1.923       .  S
C1223      C1224   1.402       .  A
C1223      H1227   1.083       .  S
C1224      C1228   1.488       .  S
C1224      C1225   1.402       .  A
C1225      C1226   1.399       .  A
C1225     Br1237   1.921       .  S
C1226      H1229   1.072       .  S
C1228      C1230   1.407       .  A
C1228      C1234   1.408       .  A
C1230      C1231   1.407       .  A
C1230      H1235   1.083       .  S
C1231      C1232   1.411       .  A
C1231     Br1239   1.918       .  S
C1232      C1233   1.406       .  A
C1233      C1234   1.400       .  A
C1234     Br1240   1.920       .  S
C1241      C1242   1.423       .  A
C1241      C1246   1.415       .  A
C1242      C1243   1.408       .  A
C1242     Br1258   1.922       .  S
C1243      C1244   1.402       .  A
C1243      H1247   1.083       .  S
C1244      C1248   1.479       .  S
C1244      C1245   1.400       .  A
C1245      C1246   1.393       .  A
C1245     Br1257   1.922       .  S
C1246      H1249   1.076       .  S
C1248      C1250   1.400       .  A
C1248      C1254   1.408       .  A
C1250      C1251   1.399       .  A
C1250      H1255   1.084       .  S
C1251      C1252   1.415       .  A
C1251     Br1259   1.920   1_655  S
C1252      C1253   1.405       .  A
C1253      C1254   1.402       .  A
C1253      H1256   1.083       .  S
C1254     Br1260   1.917       .  S
C1261      C1262   1.408       .  A
C1261      C1266   1.400       .  A
C1262      C1263   1.406       .  A
C1262     Br1278   1.917       .  S
C1263      C1264   1.407       .  A
C1263      H1267   1.083       .  S
C1264      C1268   1.484       .  S
C1264      C1265   1.408       .  A
C1265      C1266   1.396       .  A
C1265     Br1277   1.919       .  S
C1266      H1269   1.083       .  S
C1268      C1270   1.400       .  A
C1268      C1274   1.409       .  A
C1270      C1271   1.394       .  A
C1270      H1275   1.084       .  S
C1271      C1272   1.415       .  A
C1272      C1273   1.409       .  A
C1273      C1274   1.408       .  A
C1273      H1276   1.083       .  S
C1274     Br1280   1.917       .  S
C1281      C1282   1.418       .  A
C1281      C1286   1.411       .  A
C1282      C1283   1.399       .  A
C1282     Br1298   1.913       .  S
C1283      C1284   1.401       .  A
C1283      H1287   1.084       .  S
C1284      C1288   1.487       .  S
C1284      C1285   1.406       .  A
C1285      C1286   1.400       .  A
C1285     Br1297   1.917       .  S
C1286      H1289   1.083       .  S
C1288      C1290   1.404       .  A
C1288      C1294   1.410       .  A
C1290      C1291   1.401       .  A
C1290      H1295   1.084       .  S
C1291      C1292   1.411       .  A
C1291     Br1299   1.916       .  S
C1292      C1293   1.405       .  A
C1293      C1294   1.403       .  A
C1293      H1296   1.083       .  S
C1294     Br1300   1.918       .  S
C1301      C1302   1.423       .  A
C1301      C1306   1.416       .  A
C1302      C1303   1.409       .  A
C1302     Br1318   1.918       .  S
C1303      C1304   1.403       .  A
C1303      H1307   1.083   1_556  S
C1304      C1308   1.485       .  S
C1304      C1305   1.402       .  A
C1305      C1306   1.396       .  A
C1305     Br1317   1.921       .  S
C1306      H1309   1.077       .  S
C1308      C1310   1.400   1_556  A
C1308      C1314   1.411       .  A
C1310      C1311   1.401       .  A
C1310      H1315   1.084       .  S
C1311      C1312   1.416       .  A
C1312      C1313   1.404   1_554  A
C1313      C1314   1.404       .  A
C1313      H1316   1.083       .  S
C1314     Br1320   1.918       .  S
C1321      C1322   1.412       .  A
C1321      C1326   1.410       .  A
C1322      C1323   1.400       .  A
C1322     Br1338   1.917   1_556  S
C1323      C1324   1.404       .  A
C1323      H1327   1.084       .  S
C1324      C1328   1.481       .  S
C1324      C1325   1.406       .  A
C1325      C1326   1.401       .  A
C1325     Br1337   1.919       .  S
C1326      H1329   1.083       .  S
C1328      C1330   1.402       .  A
C1328      C1334   1.410       .  A
C1330      C1331   1.395       .  A
C1330      H1335   1.084       .  S
C1331      C1332   1.406       .  A
C1331     Br1339   1.917       .  S
C1332      C1333   1.403       .  A
C1333      C1334   1.404       .  A
C1333      H1336   1.083       .  S
C1334     Br1340   1.918       .  S
C1341      C1342   1.412       .  A
C1341      C1346   1.405       .  A
C1342      C1343   1.406       .  A
C1342     Br1358   1.919       .  S
C1343      C1344   1.406       .  A
C1343      H1347   1.083       .  S
C1344      C1348   1.494       .  S
C1344      C1345   1.411       .  A
C1345      C1346   1.402       .  A
C1345     Br1357   1.918       .  S
C1346      H1349   1.083       .  S
C1348      C1350   1.399       .  A
C1348      C1354   1.410       .  A
C1350      C1351   1.400   1_556  A
C1350      H1355   1.084   1_556  S
C1351      C1352   1.424       .  A
C1351     Br1359   1.925       .  S
C1352      C1353   1.411   1_554  A
C1353      C1354   1.410       .  A
C1353      H1356   1.083       .  S
C1354     Br1360   1.915       .  S
