geometry optimzed in LAMMPS
_audit_creation_date              2020-12-01 
_audit_creation_method            'lammps2cif' 
_symmetry_space_group_name_H-M    'P1' 
_symmetry_Int_Tables_number       1 
_symmetry_cell_setting            triclinic 
loop_ 
_symmetry_equiv_pos_as_xyz 
  x,y,z 
_cell_length_a                    61.3997133 
_cell_length_b                    61.414562403776145 
_cell_length_c                    36.13624981167583 
_cell_angle_alpha                 90.0187249145921 
_cell_angle_beta                  89.99979876217445 
_cell_angle_gamma                 125.44413345053917 
loop_ 
_atom_site_label 
_atom_site_type_symbol 
_atom_site_fract_x 
_atom_site_fract_y 
_atom_site_fract_z 
_atom_site_charge 
N1          N  0.08457132  0.59684544  0.47836269    -0.25600
N2          N  0.07682200  0.59439389  0.44354148    -0.33500
C3          C  0.05007398  0.58072191  0.44233654     0.02700
C4          C  0.04065486  0.57433522  0.47808622     0.08800
C5          C  0.06287435  0.58475623  0.50034930    -0.04300
H6          H  0.03843981  0.57589305  0.41729658     0.09400
H7          H  0.06330312  0.58380765  0.53022168     0.10600
Cu8        Cu  0.10267020  0.60950173  0.39914433     0.44200
Cu9        Cu  0.12433953  0.61709421  0.49399625     0.42000
Cu10       Cu  0.17284335  0.64544010  0.41824526     0.43900
N11         N  0.13137397  0.62395903  0.35840425    -0.33000
N12         N  0.15724952  0.63696516  0.36504970    -0.27200
C13         C  0.17024388  0.64227006  0.33261464    -0.03400
C14         C  0.15148100  0.63210837  0.30459220     0.08900
C15         C  0.12713321  0.62065469  0.32175698     0.02700
H16         H  0.19157056  0.65222815  0.32977944     0.10300
H17         H  0.10767904  0.61007983  0.30870643     0.09400
N18         N  0.18292532  0.65022253  0.47391425    -0.34400
N19         N  0.16545515  0.63977221  0.50142758    -0.26600
C20         C  0.17875296  0.64572130  0.53369573    -0.01900
C21         C  0.20574030  0.66067560  0.52590455     0.06700
C22         C  0.20774114  0.66310642  0.48793047     0.04800
H23         H  0.16941220  0.63900991  0.56061165     0.09900
H24         H  0.22582401  0.67275470  0.47156117     0.08800
C25         C  0.34899726  0.67944076  0.59972290     0.88200
C26         C  0.32065167  0.67109352  0.59139388    -0.52100
C27         C  0.31593785  0.68899127  0.60369009     0.11100
C28         C  0.33988127  0.71354676  0.62320192     0.22000
C29         C  0.36759073  0.70731877  0.58265187    -0.52800
C30         C  0.36278779  0.72513550  0.59500148     0.11200
C31         C  0.35234173  0.68390309  0.64167114    -0.52300
C32         C  0.34751340  0.70178142  0.65387198     0.11800
H33         H  0.30585108  0.65298733  0.57645891     0.16300
H34         H  0.33597273  0.72811340  0.63313750     0.02000
H35         H  0.38296588  0.71243911  0.56240621     0.16600
H36         H  0.35782239  0.67378935  0.66000148     0.16400
N37         N  0.41671765  0.53101322  0.47638020    -0.25600
N38         N  0.42022764  0.52552289  0.44242892    -0.33500
C39         C  0.43296218  0.51366890  0.44403423     0.02700
C40         C  0.43755522  0.51155559  0.48071267     0.08800
C41         C  0.42715141  0.52274763  0.50058727    -0.04300
H42         H  0.43927847  0.50797854  0.42020531     0.09400
H43         H  0.42795930  0.52557670  0.53024477     0.10600
Cu44       Cu  0.41009813  0.53663243  0.39526932     0.44200
Cu45       Cu  0.39996399  0.55149652  0.48774503     0.42000
Cu46       Cu  0.38302860  0.57474352  0.40737907     0.43900
N47         N  0.40242809  0.55310802  0.35196490    -0.33000
N48         N  0.39265783  0.56729409  0.35617129    -0.27200
C49         C  0.39247325  0.57725531  0.32309548    -0.03400
C50         C  0.40251045  0.56874338  0.29715893     0.08900
C51         C  0.40869662  0.55359173  0.31623388     0.02700
H52         H  0.38669011  0.59067494  0.31866448     0.10300
H53         H  0.41828382  0.54470299  0.30538112     0.09400
N54         N  0.37829839  0.58219231  0.46169377    -0.34400
N55         N  0.38459407  0.57393621  0.49095531    -0.26600
C56         C  0.38062527  0.58354498  0.52175293    -0.01900
C57         C  0.37138540  0.59842204  0.51118674     0.06700
C58         C  0.37014382  0.59722370  0.47308102     0.04800
H59         H  0.38484882  0.58050675  0.54960390     0.09900
H60         H  0.36451778  0.60717941  0.45488151     0.08800
N61         N  0.91952728  0.51100121  0.51544376    -0.25600
N62         N  0.92853968  0.51437941  0.54970215    -0.33500
C63         C  0.95531025  0.52831875  0.54904137     0.02700
C64         C  0.96342068  0.53390660  0.51267827     0.08800
C65         C  0.94039533  0.52272150  0.49194416    -0.04300
H66         H  0.96785502  0.53375606  0.57324504     0.09400
H67         H  0.93886697  0.52298179  0.46213591     0.10600
Cu68       Cu  0.90427460  0.49935959  0.59585611     0.44200
Cu69       Cu  0.87928455  0.49058962  0.50298938     0.42000
Cu70       Cu  0.83354967  0.46314961  0.58261775     0.43900
N71         N  0.87702249  0.48124847  0.63858513    -0.33000
N72         N  0.85088077  0.46780303  0.63403603    -0.27200
C73         C  0.83879911  0.45817703  0.66706247    -0.03400
C74         C  0.85841889  0.46602949  0.69330163     0.08900
C75         C  0.88234708  0.48058449  0.67445659     0.02700
H76         H  0.81742432  0.44633724  0.67153212     0.10300
H77         H  0.90217178  0.48993914  0.68587958     0.09400
N78         N  0.82170510  0.46037237  0.52794366    -0.34400
N79         N  0.83818687  0.47010840  0.49926492    -0.26600
C80         C  0.82389200  0.46416570  0.46799141    -0.01900
C81         C  0.79729288  0.45007964  0.47756889     0.06700
C82         C  0.79648625  0.44798755  0.51560977     0.04800
H83         H  0.83226668  0.46945883  0.44039163     0.09900
H84         H  0.77889574  0.43789831  0.53303259     0.08800
N85         N  0.51335548  0.47946955  0.52266695    -0.25600
N86         N  0.51286788  0.48860931  0.55557555    -0.33500
C87         C  0.49565035  0.49541252  0.55478254     0.02700
C88         C  0.48483341  0.49022588  0.51977842     0.08800
C89         C  0.49642372  0.48021387  0.49997505    -0.04300
H90         H  0.49181338  0.50406703  0.57774006     0.09400
H91         H  0.49324636  0.47442280  0.47112027     0.10600
Cu92       Cu  0.53650322  0.49277664  0.59958812     0.44200
Cu93       Cu  0.53763604  0.46723906  0.51021659     0.42000
Cu94       Cu  0.57920137  0.47115724  0.58591745     0.43900
N95         N  0.56266732  0.49650752  0.63936905    -0.33000
N96         N  0.57835180  0.48851019  0.63448792    -0.27200
C97         C  0.59292786  0.49377922  0.66531352    -0.03400
C98         C  0.58599897  0.50566184  0.69051034     0.08900
C99         C  0.56680943  0.50710072  0.67338281     0.02700
H100        H  0.60736401  0.48921695  0.66905863     0.10300
H101        H  0.55651959  0.51510960  0.68477102     0.09400
N102        N  0.57751636  0.45618792  0.53384386    -0.34400
N103        N  0.56270890  0.45505439  0.50625073    -0.26600
C104        C  0.56635022  0.44440597  0.47642369    -0.01900
C105        C  0.58420968  0.43861771  0.48590375     0.06700
C106        C  0.59094398  0.44626736  0.52232785     0.04800
H107        H  0.55655398  0.44097080  0.44999295     0.09900
H108        H  0.60451837  0.44471327  0.53926930     0.08800
C109        C  0.63847296  0.38698732  0.39309131     0.88200
C110        C  0.62802445  0.35857421  0.40514155    -0.52100
C111        C  0.64231940  0.34994385  0.39077005     0.11100
C112        C  0.66554546  0.37034258  0.36551733     0.22000
C113        C  0.66802191  0.40422770  0.40415440    -0.52800
C114        C  0.68212909  0.39543180  0.38980293     0.11200
C115        C  0.63837243  0.38646288  0.35076874    -0.52300
C116        C  0.65258068  0.37774778  0.33634067     0.11800
H117        H  0.61156778  0.34680527  0.42439972     0.16300
H118        H  0.67717772  0.36326471  0.35389252     0.02000
H119        H  0.67679144  0.42128680  0.42269287     0.16600
H120        H  0.62830747  0.39270545  0.33377596     0.16400
N121        N  0.50566252  0.96583023  0.47121899    -0.25600
N122        N  0.50588328  0.97567398  0.43854664    -0.33500
C123        C  0.52162798  0.00249333  0.44021745     0.02700
C124        C  0.53180237  0.00981298  0.47553619     0.08800
C125        C  0.52131674  0.98623809  0.49463344    -0.04300
H126        H  0.52462399  0.01561355  0.41774404     0.09400
H127        H  0.52409336  0.98403875  0.52361529     0.10600
Cu128      Cu  0.48310631  0.95275982  0.39389083     0.44200
Cu129      Cu  0.48241938  0.92517544  0.48299914     0.42000
Cu130      Cu  0.43777606  0.88226753  0.40846005     0.43900
N131        N  0.45666719  0.92666608  0.35408752    -0.33000
N132        N  0.43974515  0.90061830  0.35933183    -0.27200
C133        C  0.42513329  0.88931424  0.32842238    -0.03400
C134        C  0.43339730  0.90936042  0.30283853     0.08900
C135        C  0.45335080  0.93272599  0.31980522     0.02700
H136        H  0.40979445  0.86816885  0.32488884     0.10300
H137        H  0.46466065  0.95264807  0.30816566     0.09400
N138        N  0.43919426  0.86854911  0.46007285    -0.34400
N139        N  0.45535748  0.88392030  0.48723937    -0.26600
C140        C  0.45031946  0.86858534  0.51716222    -0.01900
C141        C  0.43010039  0.84250905  0.50812643     0.06700
C142        C  0.42350814  0.84312658  0.47190728     0.04800
H143        H  0.46023804  0.87597363  0.54363417     0.09900
H144        H  0.40809776  0.82644140  0.45551824     0.08800
N145        N  0.58673093  0.12812601  0.51829236    -0.25600
N146        N  0.58494871  0.11961226  0.55254188    -0.33500
C147        C  0.57587215  0.09374874  0.55164892     0.02700
C148        C  0.57187341  0.08575795  0.51516652     0.08800
C149        C  0.57882401  0.10787364  0.49468491    -0.04300
H150        H  0.57141438  0.08143261  0.57583326     0.09400
H151        H  0.57724492  0.10891797  0.46500499     0.10600
Cu152      Cu  0.59207157  0.14237360  0.59923728     0.44200
Cu153      Cu  0.59770930  0.16613479  0.50518142     0.42000
Cu154      Cu  0.60745495  0.20785995  0.58311217     0.43900
N155        N  0.59658084  0.16763806  0.64119247    -0.33000
N156        N  0.60195868  0.19154731  0.63525877    -0.27200
C157        C  0.60185924  0.20214967  0.66777431    -0.03400
C158        C  0.59624355  0.18402610  0.69526706     0.08900
C159        C  0.59290650  0.16235591  0.67765123     0.02700
H160        H  0.60475163  0.22119177  0.67093085     0.10300
H161        H  0.58723546  0.14374057  0.69014969     0.09400
N162        N  0.61231635  0.22012996  0.52857949    -0.34400
N163        N  0.60877846  0.20495309  0.49995954    -0.26600
C164        C  0.61327956  0.21876130  0.46855383    -0.01900
C165        C  0.61997207  0.24370109  0.47812116     0.06700
C166        C  0.61916536  0.24397235  0.51622758     0.04800
H167        H  0.61156082  0.21110560  0.44092344     0.09900
H168        H  0.62301416  0.26016350  0.53371613     0.08800
N169        N  0.59553974  0.56477771  0.97773134    -0.25600
N170        N  0.59230097  0.57078533  0.94397412    -0.33500
C171        C  0.57953252  0.58259015  0.94599734     0.02700
C172        C  0.57462041  0.58411461  0.98274534     0.08800
C173        C  0.58489088  0.57264531  0.00223157    -0.04300
H174        H  0.57333388  0.58857068  0.92237083     0.09400
H175        H  0.58376820  0.56927916  0.03177853     0.10600
Cu176      Cu  0.60251262  0.56009956  0.89643121     0.44200
Cu177      Cu  0.61186074  0.54380626  0.98828832     0.42000
Cu178      Cu  0.62753876  0.51999009  0.90711441     0.43900
N179        N  0.60964520  0.54359207  0.85251293    -0.33000
N180        N  0.61863965  0.52867535  0.85617805    -0.27200
C181        C  0.61870193  0.51903423  0.82274474    -0.03400
C182        C  0.60938974  0.52849852  0.79714526     0.08900
C183        C  0.60375993  0.54389419  0.81679882     0.02700
H184        H  0.62396698  0.50525026  0.81779220     0.10700
H185        H  0.59485412  0.55355125  0.80630401     0.09400
N186        N  0.63176965  0.51171504  0.96129338    -0.34400
N187        N  0.62600080  0.52026381  0.99079149    -0.26600
C188        C  0.62950762  0.51011197  0.02137279    -0.01900
C189        C  0.63788563  0.49455289  0.01044978     0.06700
C190        C  0.63911648  0.49593438  0.97233682     0.04800
H191        H  0.62558808  0.51329644  0.04932950     0.09900
H192        H  0.64425557  0.48567066  0.95390620     0.08800
N193        N  0.49915657  0.61672665  0.02401359    -0.25600
N194        N  0.50002113  0.60836786  0.05735184    -0.33500
C195        C  0.51695761  0.60120684  0.05688173     0.02700
C196        C  0.52718738  0.60533293  0.02163522     0.08800
C197        C  0.51555519  0.61510021  0.00136722    -0.04300
H198        H  0.52106631  0.59311796  0.08028312     0.09400
H199        H  0.51843959  0.62025386  0.97228669     0.10600
Cu200      Cu  0.47729487  0.60571674  0.10160694     0.44200
Cu201      Cu  0.47530618  0.62937658  0.01094168     0.42000
Cu202      Cu  0.43493579  0.62747636  0.08666630     0.43900
N203        N  0.45127177  0.60258555  0.14108483    -0.33000
N204        N  0.43564863  0.61059346  0.13566515    -0.27200
C205        C  0.42077389  0.60533832  0.16613728    -0.03400
C206        C  0.42745993  0.59345967  0.19167652     0.08900
C207        C  0.44679865  0.59199548  0.17512869     0.02700
H208        H  0.40617393  0.60973676  0.16930619     0.10300
H209        H  0.45680884  0.58377775  0.18681803     0.09400
N210        N  0.43631667  0.64166061  0.03424761    -0.34400
N211        N  0.45069553  0.64210328  0.00658277    -0.26600
C212        C  0.44677744  0.65224762  0.97641293    -0.01900
C213        C  0.42918465  0.65841165  0.98579020     0.06700
C214        C  0.42289328  0.65150966  0.02247005     0.04800
H215        H  0.45610195  0.65496793  0.94977764     0.09900
H216        H  0.40953232  0.65341417  0.03937078     0.08800
C217        C  0.37208572  0.70697674  0.89297662     0.88200
C218        C  0.38242799  0.73538590  0.90485638    -0.52100
C219        C  0.36785741  0.74375249  0.89071773     0.11100
C220        C  0.34445742  0.72311233  0.86587988     0.22000
C221        C  0.34263252  0.68959092  0.90453113    -0.52800
C222        C  0.32822543  0.69811302  0.89039626     0.11200
C223        C  0.37181128  0.70727950  0.85065922    -0.52300
C224        C  0.35731802  0.71574061  0.83649623     0.11800
H225        H  0.39907714  0.74738046  0.92376825     0.16300
H226        H  0.33260306  0.72998846  0.85444354     0.02000
H227        H  0.33412420  0.67257920  0.92308774     0.16600
H228        H  0.38189386  0.70114228  0.83348468     0.16400
N229        N  0.09009202  0.58098107  0.01620627    -0.25600
N230        N  0.08130744  0.57707790  0.05065856    -0.33500
C231        C  0.05450598  0.56283806  0.05046567     0.02700
C232        C  0.04611219  0.55759348  0.01419410     0.08800
C233        C  0.06901922  0.56929639  0.99304307    -0.04300
H234        H  0.04213172  0.55695693  0.07493193     0.09400
H235        H  0.07032200  0.56939254  0.96317190     0.10600
Cu236      Cu  0.10591165  0.59173660  0.09645084     0.44200
Cu237      Cu  0.13035058  0.60193955  0.00307930     0.42000
Cu238      Cu  0.17658459  0.62840573  0.08216391     0.43900
N239        N  0.13343753  0.60930438  0.13887485    -0.33000
N240        N  0.15955800  0.62292698  0.13395210    -0.27200
C241        C  0.17183618  0.63214492  0.16694470    -0.03400
C242        C  0.15234901  0.62381705  0.19353268     0.08900
C243        C  0.12831170  0.60943475  0.17496022     0.02700
H244        H  0.19324470  0.64408026  0.17113600     0.10300
H245        H  0.10855084  0.59989888  0.18669690     0.09400
N246        N  0.18808797  0.63172467  0.02728716    -0.34400
N247        N  0.17148808  0.62239283  0.99873145    -0.26600
C248        C  0.18567095  0.62852561  0.96729005    -0.01900
C249        C  0.21230120  0.64229678  0.97667680     0.06700
C250        C  0.21323249  0.64400901  0.01474563     0.04800
H251        H  0.17720432  0.62351464  0.93973038     0.09900
H252        H  0.23086545  0.65372752  0.03207618     0.08800
N253        N  0.42189668  0.96447407  0.01941556    -0.25600
N254        N  0.42399510  0.97315516  0.05364394    -0.33500
C255        C  0.43329538  0.99908267  0.05262970     0.02700
C256        C  0.43709237  0.00690853  0.01607994     0.08800
C257        C  0.42979933  0.98464648  0.99570318    -0.04300
H258        H  0.43807468  0.01155030  0.07675118     0.09400
H259        H  0.43121226  0.98345790  0.96601561     0.10600
Cu260      Cu  0.41698971  0.95041609  0.10031345     0.44200
Cu261      Cu  0.41077319  0.92644963  0.00639810     0.42000
Cu262      Cu  0.40034896  0.88429767  0.08384734     0.43900
N263        N  0.41217663  0.92486990  0.14202638    -0.33000
N264        N  0.40624094  0.90074387  0.13597322    -0.27200
C265        C  0.40631345  0.89002941  0.16837732    -0.03400
C266        C  0.41249327  0.90829935  0.19592122     0.08900
C267        C  0.41619586  0.93017567  0.17846140     0.02700
H268        H  0.40309282  0.87082815  0.17139489     0.10300
H269        H  0.42237341  0.94894055  0.19102724     0.09400
N270        N  0.39624627  0.87244179  0.02921784    -0.34400
N271        N  0.40009395  0.88784665  0.00076456    -0.26600
C272        C  0.39628053  0.87444456  0.96918157    -0.01900
C273        C  0.38971462  0.84952333  0.97845264     0.06700
C274        C  0.38987016  0.84882828  0.01657392     0.04800
H275        H  0.39836875  0.88236372  0.94164321     0.09900
H276        H  0.38591114  0.83251979  0.03387191     0.08800
N277        N  0.50452374  0.12663911  0.97147509    -0.25600
N278        N  0.50396535  0.11668827  0.93872481    -0.33500
C279        C  0.48789263  0.08987040  0.94041122     0.02700
C280        C  0.47787084  0.08269557  0.97582597     0.08800
C281        C  0.48878104  0.10633204  0.99494455    -0.04300
H282        H  0.48456896  0.07664491  0.91788810     0.09400
H283        H  0.48623226  0.10863203  0.02398261     0.10600
Cu284      Cu  0.52675926  0.13951010  0.89400458     0.44200
Cu285      Cu  0.52831821  0.16724507  0.98338983     0.42000
Cu286      Cu  0.57352773  0.20994699  0.90938889     0.43900
N287        N  0.55332294  0.16559860  0.85427774    -0.33000
N288        N  0.57076140  0.19155514  0.85981315    -0.27200
C289        C  0.58521893  0.20281820  0.82877962    -0.03400
C290        C  0.57631716  0.18285370  0.80280783     0.08900
C291        C  0.55615064  0.15957342  0.81968938     0.02700
H292        H  0.60086277  0.22389432  0.82540487     0.10300
H293        H  0.54434759  0.13973134  0.80777155     0.09400
N294        N  0.57232694  0.22371026  0.96116841    -0.34400
N295        N  0.55587506  0.20837551  0.98811011    -0.26600
C296        C  0.56081066  0.22367621  0.01805225    -0.01900
C297        C  0.58128489  0.24970944  0.00928973     0.06700
C298        C  0.58811827  0.24909408  0.97318848     0.04800
H299        H  0.55052549  0.21631307  0.04428576     0.09900
H300        H  0.60362510  0.26578628  0.95692505     0.08800
C301        C  0.65985439  0.41311506  0.09896496     0.88200
C302        C  0.68828633  0.42175338  0.09052385    -0.52100
C303        C  0.69338529  0.40420073  0.10308664     0.11100
C304        C  0.66969815  0.37966271  0.12297688     0.22000
C305        C  0.64145003  0.38504928  0.08230676    -0.52800
C306        C  0.64663619  0.36757283  0.09494020     0.11200
C307        C  0.65673929  0.40898650  0.14098392    -0.52300
C308        C  0.66193730  0.39144367  0.15347079     0.11800
H309        H  0.70285720  0.43978347  0.07528432     0.16300
H310        H  0.67391672  0.36537448  0.13313411     0.02000
H311        H  0.62593847  0.37956947  0.06211247     0.16600
H312        H  0.65109722  0.41904621  0.15914712     0.16400
N313        N  0.92481111  0.49406643  0.97933786    -0.25600
N314        N  0.93276849  0.49615018  0.94470331    -0.33500
C315        C  0.95953407  0.50990091  0.94390364     0.02700
C316        C  0.96875107  0.51672249  0.97971872     0.08800
C317        C  0.94638113  0.50646970  0.00160537    -0.04300
H318        H  0.97132358  0.51447002  0.91909243     0.09400
H319        H  0.94576527  0.50774248  0.03141285     0.10600
Cu320      Cu  0.90712447  0.48038297  0.90001242     0.44200
Cu321      Cu  0.88493147  0.47392272  0.99427085     0.42000
Cu322      Cu  0.83672665  0.44416685  0.91795773     0.43900
N323        N  0.87867934  0.46535558  0.85873266    -0.33000
N324        N  0.85273044  0.45221519  0.86491046    -0.27200
C325        C  0.84000842  0.44676351  0.83218569    -0.03400
C326        C  0.85901203  0.45695727  0.80445721     0.08900
C327        C  0.88322463  0.46859189  0.82213012     0.02700
H328        H  0.81870885  0.43681483  0.82894823     0.10300
H329        H  0.90280646  0.47936257  0.80944618     0.09400
N330        N  0.82641365  0.44062602  0.97352946    -0.34400
N331        N  0.84379326  0.45160387  0.00113666    -0.26600
C332        C  0.83042085  0.44650758  0.03315814    -0.01900
C333        C  0.80346876  0.43156455  0.02516122     0.06700
C334        C  0.80156597  0.42824210  0.98728146     0.04800
H335        H  0.83969905  0.45377143  0.06002282     0.09900
H336        H  0.78353342  0.41831265  0.97075759     0.08800
C337        C  0.78187859  0.42383221  0.05007258    -0.16800
C338        C  0.76263119  0.41793733  0.06802034     0.07200
C339        C  0.73901792  0.41193378  0.08490487     0.09100
C340        C  0.71829369  0.40778483  0.09538983    -0.17700
C341        C  0.59378466  0.27282690  0.03283800    -0.16800
C342        C  0.60538919  0.29329819  0.05043634     0.07200
C343        C  0.61974116  0.31832295  0.06849561     0.09100
C344        C  0.63212381  0.34043096  0.08174323    -0.17700
C345        C  0.44993742  0.03362134  0.00240968    -0.11600
C346        C  0.46205330  0.05610132  0.99062016    -0.13200
C347        C  0.01901134  0.54324123  0.00143502    -0.11600
C348        C  0.99605620  0.53116220  0.99160885    -0.13200
C349        C  0.37231962  0.76848662  0.90216268    -0.16800
C350        C  0.37609059  0.78836443  0.91555485     0.07200
C351        C  0.38063140  0.81059530  0.93488022     0.09100
C352        C  0.38467197  0.82876152  0.95376478    -0.17700
C353        C  0.23470481  0.65345400  0.95207175    -0.16800
C354        C  0.25449454  0.66343576  0.93326194     0.07200
C355        C  0.27893435  0.67558186  0.91414728     0.09100
C356        C  0.30090617  0.68600032  0.90112492    -0.17700
C357        C  0.38727430  0.69769496  0.90883351    -0.16800
C358        C  0.39845624  0.68932549  0.92403337     0.07200
C359        C  0.41018454  0.67889996  0.94391317     0.09100
C360        C  0.41927229  0.66964794  0.96235832    -0.17700
C361        C  0.64244521  0.47851158  0.03356747    -0.16800
C362        C  0.64610854  0.46434879  0.05150441     0.07200
C363        C  0.65046638  0.44709983  0.07051632     0.09100
C364        C  0.65445839  0.43194027  0.08470604    -0.17700
C365        C  0.55895356  0.59267429  0.99706990    -0.11600
C366        C  0.54485890  0.59894995  0.00831730    -0.13200
C367        C  0.58539626  0.18544187  0.76544398    -0.11600
C368        C  0.59127440  0.18569124  0.73358235    -0.13200
C369        C  0.55927542  0.05900887  0.50172635    -0.11600
C370        C  0.54737600  0.03645967  0.49021646    -0.13200
C371        C  0.41775763  0.90657919  0.23405654    -0.11600
C372        C  0.42393450  0.90678820  0.26573200    -0.13200
C373        C  0.63792435  0.32527597  0.40250067    -0.16800
C374        C  0.63427172  0.30545556  0.41594073     0.07200
C375        C  0.62974601  0.28315763  0.43509005     0.09100
C376        C  0.62550705  0.26479681  0.45371045    -0.17700
C377        C  0.66058102  0.38503245  0.19212901    -0.16800
C378        C  0.65937244  0.38093923  0.22493328     0.07200
C379        C  0.65767996  0.37786185  0.26375187     0.09100
C380        C  0.65574390  0.37685784  0.29699209    -0.17700
C381        C  0.62369255  0.39666018  0.40924316    -0.16800
C382        C  0.61308933  0.40559904  0.42461166     0.07200
C383        C  0.60213925  0.41681312  0.44454682     0.09100
C384        C  0.59364887  0.42671659  0.46287288    -0.17700
C385        C  0.59591892  0.51403661  0.72749509    -0.11600
C386        C  0.60294172  0.52080568  0.75904640    -0.13200
C387        C  0.70934829  0.40714921  0.40059955    -0.16800
C388        C  0.73114193  0.41725882  0.41405703     0.07200
C389        C  0.75528165  0.42910122  0.43382466     0.09100
C390        C  0.77487153  0.43892712  0.45301387    -0.17700
C391        C  0.85517596  0.46058420  0.73234611    -0.11600
C392        C  0.85528119  0.45780124  0.76536213    -0.13200
C393        C  0.45300258  0.50267041  0.49477370    -0.11600
C394        C  0.46703024  0.49633140  0.50608443    -0.13200
C395        C  0.41683060  0.58461721  0.22821535    -0.11600
C396        C  0.40930641  0.57726016  0.25943170    -0.13200
C397        C  0.41721718  0.81944119  0.53174785    -0.16800
C398        C  0.40519662  0.79905401  0.54949334     0.07200
C399        C  0.39034643  0.77417349  0.56785562     0.09100
C400        C  0.37759870  0.75218015  0.58143396    -0.17700
C401        C  0.35403144  0.66029851  0.58573833    -0.16800
C402        C  0.35793406  0.64505626  0.57162502     0.07200
C403        C  0.36240450  0.62790615  0.55258572     0.09100
C404        C  0.36633551  0.61398154  0.53454820    -0.17700
C405        C  0.35395140  0.71660199  0.79722551    -0.16800
C406        C  0.35193608  0.71564005  0.76401025     0.07200
C407        C  0.35021663  0.71258741  0.72520943     0.09100
C408        C  0.34897970  0.70842324  0.69243416    -0.17700
C409        C  0.15556487  0.63149039  0.26562087    -0.11600
C410        C  0.15577751  0.62895282  0.23259526    -0.13200
C411        C  0.29112952  0.68564352  0.59618538    -0.16800
C412        C  0.27038698  0.68152067  0.58587846     0.07200
C413        C  0.24666338  0.67530341  0.56913019     0.09100
C414        C  0.22731491  0.66902451  0.55113893    -0.17700
C415        C  0.01330922  0.56006220  0.48962724    -0.11600
C416        C  0.99038724  0.54810612  0.49949888    -0.13200
loop_ 
_geom_bond_atom_site_label_1 
_geom_bond_atom_site_label_2 
_geom_bond_distance 
_geom_bond_site_symmetry_2 
_ccdc_geom_bond_type 
N1            N2   1.323       .  A
N1            C5   1.346       .  A
N1           Cu9   2.075       .  S
N2            C3   1.343       .  A
N2           Cu8   2.061       .  S
C3            C4   1.376       .  A
C3            H6   1.082       .  S
C4            C5   1.380       .  A
C4          C415   1.433       .  S
C5            H7   1.082       .  S
Cu8          N11   2.061       .  S
Cu9          N19   2.075       .  S
Cu10         N12   2.075       .  S
Cu10         N18   2.075       .  S
N11          N12   1.322       .  A
N11          C15   1.342       .  A
N12          C13   1.347       .  A
C13          C14   1.381       .  A
C13          H16   1.082       .  S
C14          C15   1.377       .  A
C14         C409   1.435       .  S
C15          H17   1.082       .  S
N18          N19   1.324       .  A
N18          C22   1.344       .  A
N19          C20   1.347       .  A
C20          C21   1.380       .  A
C20          H23   1.082       .  S
C21          C22   1.378       .  A
C21         C414   1.436       .  S
C22          H24   1.082       .  S
C25          C26   1.532       .  S
C25          C31   1.533       .  S
C25          C29   1.533       .  S
C25         C401   1.468       .  S
C26          H33   1.087       .  S
C26          C27   1.363       .  D
C27          C28   1.536       .  S
C27         C411   1.440       .  S
C28          C32   1.537       .  S
C28          C30   1.537       .  S
C28          H34   1.112       .  S
C29          H35   1.087       .  S
C29          C30   1.363       .  D
C30         C400   1.440       .  S
C31          H36   1.087       .  S
C31          C32   1.366       .  D
C32         C408   1.440       .  S
N37          N38   1.323       .  A
N37          C41   1.346       .  A
N37         Cu45   2.076       .  S
N38          C39   1.343       .  A
N38         Cu44   2.061       .  S
C39          C40   1.377       .  A
C39          H42   1.082       .  S
C40          C41   1.380       .  A
C40         C393   1.434       .  S
C41          H43   1.082       .  S
Cu44         N47   2.061       .  S
Cu45         N55   2.076       .  S
Cu46         N48   2.073       .  S
Cu46         N54   2.074       .  S
N47          N48   1.322       .  A
N47          C51   1.343       .  A
N48          C49   1.346       .  A
C49          C50   1.380       .  A
C49          H52   1.082       .  S
C50          C51   1.377       .  A
C50         C396   1.433       .  S
C51          H53   1.082       .  S
N54          N55   1.324       .  A
N54          C58   1.345       .  A
N55          C56   1.346       .  A
C56          C57   1.380       .  A
C56          H59   1.082       .  S
C57          C58   1.379       .  A
C57         C404   1.437       .  S
C58          H60   1.082       .  S
N61          N62   1.322       .  A
N61          C65   1.346       .  A
N61         Cu69   2.070       .  S
N62          C63   1.343       .  A
N62         Cu68   2.064       .  S
C63          C64   1.376       .  A
C63          H66   1.082       .  S
C64          C65   1.380       .  A
C64         C416   1.433       .  S
C65          H67   1.082       .  S
Cu68         N71   2.065       .  S
Cu69         N79   2.070       .  S
Cu70         N72   2.077       .  S
Cu70         N78   2.078       .  S
N71          N72   1.322       .  A
N71          C75   1.343       .  A
N72          C73   1.348       .  A
C73          C74   1.382       .  A
C73          H76   1.082       .  S
C74          C75   1.378       .  A
C74         C391   1.437       .  S
C75          H77   1.082       .  S
N78          N79   1.324       .  A
N78          C82   1.345       .  A
N79          C80   1.345       .  A
C80          C81   1.377       .  A
C80          H83   1.082       .  S
C81          C82   1.379       .  A
C81         C390   1.434       .  S
C82          H84   1.082       .  S
N85          N86   1.323       .  A
N85          C89   1.346       .  A
N85         Cu93   2.071       .  S
N86          C87   1.344       .  A
N86         Cu92   2.066       .  S
C87          C88   1.377       .  A
C87          H90   1.082       .  S
C88          C89   1.380       .  A
C88         C394   1.434       .  S
C89          H91   1.082       .  S
Cu92         N95   2.067       .  S
Cu93        N103   2.070       .  S
Cu94         N96   2.069       .  S
Cu94        N102   2.070       .  S
N95          N96   1.322       .  A
N95          C99   1.344       .  A
N96          C97   1.346       .  A
C97          C98   1.379       .  A
C97         H100   1.082       .  S
C98          C99   1.378       .  A
C98         C385   1.435       .  S
C99         H101   1.082       .  S
N102        N103   1.324       .  A
N102        C106   1.344       .  A
N103        C104   1.345       .  A
C104        C105   1.378       .  A
C104        H107   1.082       .  S
C105        C106   1.378       .  A
C105        C384   1.433       .  S
C106        H108   1.082       .  S
C109        C110   1.532       .  S
C109        C115   1.530       .  S
C109        C113   1.531       .  S
C109        C381   1.464       .  S
C110        H117   1.087       .  S
C110        C111   1.364       .  D
C111        C112   1.538       .  S
C111        C373   1.440       .  S
C112        C116   1.540       .  S
C112        C114   1.536       .  S
C112        H118   1.112       .  S
C113        H119   1.087       .  S
C113        C114   1.361       .  D
C114        C387   1.438       .  S
C115        H120   1.087       .  S
C115        C116   1.364       .  D
C116        C380   1.440       .  S
N121        N122   1.323       .  A
N121        C125   1.346       .  A
N121       Cu129   2.078       .  S
N122        C123   1.343   1_565  A
N122       Cu128   2.063       .  S
C123        C124   1.377       .  A
C123        H126   1.082       .  S
C124        C125   1.381   1_545  A
C124        C370   1.435       .  S
C125        H127   1.082       .  S
Cu128       N131   2.062       .  S
Cu129       N139   2.079       .  S
Cu130       N132   2.069       .  S
Cu130       N138   2.069       .  S
N131        N132   1.322       .  A
N131        C135   1.343       .  A
N132        C133   1.346       .  A
C133        C134   1.380       .  A
C133        H136   1.082       .  S
C134        C135   1.377       .  A
C134        C372   1.433       .  S
C135        H137   1.082       .  S
N138        N139   1.324       .  A
N138        C142   1.343       .  A
N139        C140   1.347       .  A
C140        C141   1.381       .  A
C140        H143   1.082       .  S
C141        C142   1.377       .  A
C141        C397   1.436       .  S
C142        H144   1.082       .  S
N145        N146   1.323       .  A
N145        C149   1.345       .  A
N145       Cu153   2.074       .  S
N146        C147   1.345       .  A
N146       Cu152   2.069       .  S
C147        C148   1.378       .  A
C147        H150   1.082       .  S
C148        C149   1.380       .  A
C148        C369   1.435       .  S
C149        H151   1.082       .  S
Cu152       N155   2.070       .  S
Cu153       N163   2.074       .  S
Cu154       N156   2.068       .  S
Cu154       N162   2.069       .  S
N155        N156   1.322       .  A
N155        C159   1.344       .  A
N156        C157   1.345       .  A
C157        C158   1.379       .  A
C157        H160   1.082       .  S
C158        C159   1.379       .  A
C158        C368   1.434       .  S
C159        H161   1.082       .  S
N162        N163   1.323       .  A
N162        C166   1.344       .  A
N163        C164   1.346       .  A
C164        C165   1.380       .  A
C164        H167   1.082       .  S
C165        C166   1.378       .  A
C165        C376   1.436       .  S
C166        H168   1.082       .  S
N169        N170   1.323       .  A
N169        C173   1.346   1_556  A
N169       Cu177   2.075       .  S
N170        C171   1.343       .  A
N170       Cu176   2.062       .  S
C171        C172   1.377       .  A
C171        H174   1.082       .  S
C172        C173   1.380   1_556  A
C172        C365   1.434       .  S
C173        H175   1.082       .  S
Cu176       N179   2.062       .  S
Cu177       N187   2.076       .  S
Cu178       N180   2.076       .  S
Cu178       N186   2.077       .  S
N179        N180   1.322       .  A
N179        C183   1.343       .  A
N180        C181   1.346       .  A
C181        C182   1.381       .  A
C181        H184   1.082       .  S
C182        C183   1.377       .  A
C182        C386   1.435       .  S
C183        H185   1.082       .  S
N186        N187   1.324       .  A
N186        C190   1.345       .  A
N187        C188   1.346   1_556  A
C188        C189   1.380       .  A
C188        H191   1.082       .  S
C189        C190   1.379   1_554  A
C189        C361   1.438       .  S
C190        H192   1.082       .  S
N193        N194   1.323       .  A
N193        C197   1.345       .  A
N193       Cu201   2.071       .  S
N194        C195   1.344       .  A
N194       Cu200   2.066       .  S
C195        C196   1.377       .  A
C195        H198   1.082       .  S
C196        C197   1.380       .  A
C196        C366   1.434       .  S
C197        H199   1.082   1_554  S
Cu200       N203   2.066       .  S
Cu201       N211   2.071       .  S
Cu202       N204   2.065       .  S
Cu202       N210   2.066       .  S
N203        N204   1.322       .  A
N203        C207   1.344       .  A
N204        C205   1.345       .  A
C205        C206   1.378       .  A
C205        H208   1.082       .  S
C206        C207   1.378       .  A
C206        C395   1.433       .  S
C207        H209   1.082       .  S
N210        N211   1.324       .  A
N210        C214   1.343       .  A
N211        C212   1.345   1_554  A
C212        C213   1.378       .  A
C212        H215   1.082       .  S
C213        C214   1.377   1_556  A
C213        C360   1.432       .  S
C214        H216   1.082       .  S
C217        C218   1.532       .  S
C217        C223   1.530       .  S
C217        C221   1.532       .  S
C217        C357   1.463       .  S
C218        H225   1.087       .  S
C218        C219   1.363       .  D
C219        C220   1.537       .  S
C219        C349   1.439       .  S
C220        C224   1.540       .  S
C220        C222   1.537       .  S
C220        H226   1.112       .  S
C221        H227   1.087       .  S
C221        C222   1.362       .  D
C222        C356   1.439       .  S
C223        H228   1.087       .  S
C223        C224   1.364       .  D
C224        C405   1.439       .  S
N229        N230   1.322       .  A
N229        C233   1.346   1_554  A
N229       Cu237   2.074       .  S
N230        C231   1.343       .  A
N230       Cu236   2.062       .  S
C231        C232   1.376       .  A
C231        H234   1.082       .  S
C232        C233   1.381   1_554  A
C232        C347   1.434       .  S
C233        H235   1.082       .  S
Cu236       N239   2.063       .  S
Cu237       N247   2.074   1_554  S
Cu238       N240   2.074       .  S
Cu238       N246   2.075       .  S
N239        N240   1.322       .  A
N239        C243   1.343       .  A
N240        C241   1.347       .  A
C241        C242   1.381       .  A
C241        H244   1.082       .  S
C242        C243   1.377       .  A
C242        C410   1.435       .  S
C243        H245   1.082       .  S
N246        N247   1.324   1_554  A
N246        C250   1.344       .  A
N247        C248   1.346       .  A
C248        C249   1.378       .  A
C248        H251   1.082       .  S
C249        C250   1.378   1_556  A
C249        C353   1.435       .  S
C250        H252   1.082       .  S
N253        N254   1.323       .  A
N253        C257   1.345   1_554  A
N253       Cu261   2.071       .  S
N254        C255   1.345       .  A
N254       Cu260   2.070       .  S
C255        C256   1.378   1_565  A
C255        H258   1.082   1_565  S
C256        C257   1.379   1_544  A
C256        C345   1.434       .  S
C257        H259   1.082       .  S
Cu260       N263   2.070       .  S
Cu261       N271   2.071       .  S
Cu262       N264   2.067       .  S
Cu262       N270   2.068       .  S
N263        N264   1.323       .  A
N263        C267   1.344       .  A
N264        C265   1.345       .  A
C265        C266   1.378       .  A
C265        H268   1.082       .  S
C266        C267   1.379       .  A
C266        C371   1.433       .  S
C267        H269   1.082       .  S
N270        N271   1.323       .  A
N270        C274   1.344       .  A
N271        C272   1.346   1_554  A
C272        C273   1.379       .  A
C272        H275   1.082       .  S
C273        C274   1.378   1_556  A
C273        C352   1.435       .  S
C274        H276   1.082       .  S
N277        N278   1.323       .  A
N277        C281   1.346       .  A
N277       Cu285   2.077       .  S
N278        C279   1.344       .  A
N278       Cu284   2.064       .  S
C279        C280   1.377       .  A
C279        H282   1.082       .  S
C280        C281   1.380       .  A
C280        C346   1.434       .  S
C281        H283   1.082   1_556  S
Cu284       N287   2.064       .  S
Cu285       N295   2.077       .  S
Cu286       N288   2.071       .  S
Cu286       N294   2.072       .  S
N287        N288   1.322       .  A
N287        C291   1.343       .  A
N288        C289   1.346       .  A
C289        C290   1.380       .  A
C289        H292   1.082       .  S
C290        C291   1.377       .  A
C290        C367   1.434       .  S
C291        H293   1.082       .  S
N294        N295   1.324       .  A
N294        C298   1.344       .  A
N295        C296   1.347   1_556  A
C296        C297   1.381       .  A
C296        H299   1.082       .  S
C297        C298   1.378   1_554  A
C297        C341   1.437       .  S
C298        H300   1.082       .  S
C301        C302   1.532       .  S
C301        C307   1.533       .  S
C301        C305   1.533       .  S
C301        C364   1.469       .  S
C302        H309   1.087       .  S
C302        C303   1.363       .  D
C303        C304   1.537       .  S
C303        C340   1.440       .  S
C304        C308   1.538       .  S
C304        C306   1.537       .  S
C304        H310   1.112       .  S
C305        H311   1.087       .  S
C305        C306   1.363       .  D
C306        C344   1.441       .  S
C307        H312   1.086       .  S
C307        C308   1.366       .  D
C308        C377   1.441       .  S
N313        N314   1.323       .  A
N313        C317   1.346   1_556  A
N313       Cu321   2.075       .  S
N314        C315   1.344       .  A
N314       Cu320   2.063       .  S
C315        C316   1.377       .  A
C315        H318   1.082       .  S
C316        C317   1.380   1_556  A
C316        C348   1.434       .  S
C317        H319   1.082       .  S
Cu320       N323   2.063       .  S
Cu321       N331   2.075   1_556  S
Cu322       N324   2.079       .  S
Cu322       N330   2.079       .  S
N323        N324   1.322       .  A
N323        C327   1.343       .  A
N324        C325   1.348       .  A
C325        C326   1.382       .  A
C325        H328   1.082       .  S
C326        C327   1.377       .  A
C326        C392   1.437       .  S
C327        H329   1.082       .  S
N330        N331   1.324   1_556  A
N330        C334   1.344       .  A
N331        C332   1.347       .  A
C332        C333   1.379       .  A
C332        H335   1.082       .  S
C333        C334   1.379   1_554  A
C333        C337   1.436       .  S
C334        H336   1.082       .  S
C337        C338   1.205       .  T
C338        C339   1.411       .  S
C339        C340   1.205       .  T
C341        C342   1.206       .  T
C342        C343   1.412       .  S
C343        C344   1.205       .  T
C345        C346   1.204   1_554  T
C347        C348   1.204   1_454  T
C349        C350   1.204       .  T
C350        C351   1.410       .  S
C351        C352   1.204       .  T
C353        C354   1.204       .  T
C354        C355   1.410       .  S
C355        C356   1.204       .  T
C357        C358   1.203       .  T
C358        C359   1.407       .  S
C359        C360   1.203       .  T
C361        C362   1.206       .  T
C362        C363   1.412       .  S
C363        C364   1.206       .  T
C365        C366   1.204   1_556  T
C367        C368   1.204       .  T
C369        C370   1.204       .  T
C371        C372   1.204       .  T
C373        C374   1.205       .  T
C374        C375   1.411       .  S
C375        C376   1.205       .  T
C377        C378   1.205       .  T
C378        C379   1.411       .  S
C379        C380   1.205       .  T
C381        C382   1.203       .  T
C382        C383   1.408       .  S
C383        C384   1.203       .  T
C385        C386   1.204       .  T
C387        C388   1.204       .  T
C388        C389   1.409       .  S
C389        C390   1.204       .  T
C391        C392   1.206       .  T
C393        C394   1.204       .  T
C395        C396   1.203       .  T
C397        C398   1.205       .  T
C398        C399   1.411       .  S
C399        C400   1.205       .  T
C401        C402   1.206       .  T
C402        C403   1.412       .  S
C403        C404   1.206       .  T
C405        C406   1.205       .  T
C406        C407   1.410       .  S
C407        C408   1.205       .  T
C409        C410   1.205       .  T
C411        C412   1.204       .  T
C412        C413   1.410       .  S
C413        C414   1.205       .  T
C415        C416   1.204   1_455  T
