geometry optimzed in LAMMPS
_audit_creation_date              2020-12-01 
_audit_creation_method            'lammps2cif' 
_symmetry_space_group_name_H-M    'P1' 
_symmetry_Int_Tables_number       1 
_symmetry_cell_setting            triclinic 
loop_ 
_symmetry_equiv_pos_as_xyz 
  x,y,z 
_cell_length_a                    47.73988965 
_cell_length_b                    47.66477218886043 
_cell_length_c                    47.686751005304224 
_cell_angle_alpha                 89.75116895125323 
_cell_angle_beta                  89.41083539211525 
_cell_angle_gamma                 90.50498916589974 
loop_ 
_atom_site_label 
_atom_site_type_symbol 
_atom_site_fract_x 
_atom_site_fract_y 
_atom_site_fract_z 
_atom_site_charge 
N1          N  0.79037628  0.18344258  0.43028183    -0.02600
C2          C  0.80673170  0.17554769  0.45211815     0.00000
C3          C  0.82508877  0.15487606  0.44357544    -0.22900
C4          C  0.81984013  0.14976360  0.41577191    -0.23100
C5          C  0.79827900  0.16724808  0.40824830    -0.00100
H6          H  0.83997592  0.14394166  0.45653587     0.13700
H7          H  0.83014562  0.13444412  0.40263965     0.13700
N8          N  0.72600305  0.28403413  0.43422314    -0.02600
C9          C  0.71516235  0.29680073  0.45754453     0.00000
C10         C  0.70176469  0.32128895  0.45007738    -0.22900
C11         C  0.70356253  0.32351651  0.42146691    -0.23100
C12         C  0.71832255  0.30057757  0.41222296    -0.00100
H13         H  0.69139321  0.33580545  0.46405880     0.13700
H14         H  0.69506673  0.34016830  0.40869545     0.13700
N15         N  0.71712656  0.27654416  0.60003059    -0.02600
C16         C  0.70809623  0.29160026  0.57756229     0.00000
C17         C  0.68936165  0.31182627  0.58643489    -0.22900
C18         C  0.68649706  0.30896843  0.61502368    -0.23100
C19         C  0.70346755  0.28705882  0.62274800    -0.00100
H20         H  0.67802193  0.32628865  0.57328140     0.13700
H21         H  0.67265314  0.32080173  0.62854265     0.13700
N22         N  0.81183919  0.20377942  0.59318961    -0.02600
C23         C  0.82121556  0.18989613  0.56990669     0.00000
C24         C  0.84538698  0.17536291  0.57581578    -0.22900
C25         C  0.85096319  0.17962764  0.60355173    -0.23100
C26         C  0.83037604  0.19703791  0.61369973    -0.00100
H27         H  0.85752277  0.16273878  0.56140569     0.13700
H28         H  0.86806996  0.17071632  0.61521041     0.13700
N29         N  0.71313569  0.18757571  0.93169522    -0.02600
C30         C  0.70437733  0.17121601  0.95367839     0.00000
C31         C  0.68570689  0.15099462  0.94427362    -0.22900
C32         C  0.68257149  0.15519460  0.91596659    -0.23100
C33         C  0.69930399  0.17789399  0.90890257    -0.00100
H34         H  0.67427069  0.13585971  0.95704151     0.13700
H35         H  0.66881818  0.14360038  0.90222670     0.13700
N36         N  0.81473459  0.25189598  0.93262894    -0.02600
C37         C  0.82414900  0.26529632  0.95596873     0.00000
C38         C  0.85003712  0.27755598  0.95077277    -0.22900
C39         C  0.85669069  0.27217046  0.92327482    -0.23100
C40         C  0.83495451  0.25633707  0.91267511    -0.00100
H41         H  0.86249518  0.28957135  0.96535546     0.13700
H42         H  0.87514805  0.27951892  0.91201038     0.13700
N43         N  0.71341854  0.17609781  0.09694320    -0.02600
C44         C  0.70199426  0.16354554  0.07395974     0.00000
C45         C  0.68637810  0.14025693  0.08208246    -0.22900
C46         C  0.68739465  0.13876392  0.11081118    -0.23100
C47         C  0.70381007  0.16097414  0.11945551    -0.00100
H48         H  0.67534047  0.12589963  0.06847906     0.13700
H49         H  0.67776058  0.12275891  0.12398446     0.13700
N50         N  0.77949177  0.27640959  0.09292635    -0.02600
C51         C  0.79703765  0.28311424  0.07111509     0.00000
C52         C  0.81546295  0.30410915  0.07917295    -0.22900
C53         C  0.80897495  0.31071384  0.10640550    -0.23100
C54         C  0.78668931  0.29371833  0.11423166    -0.00100
H55         H  0.83141285  0.31415529  0.06622371     0.13700
H56         H  0.81951037  0.32613966  0.11923528     0.13700
N57         N  0.79578637  0.89995997  0.27635581    -0.02600
C58         C  0.80507953  0.92285679  0.29077675     0.00000
C59         C  0.82868913  0.91586612  0.30579083    -0.22900
C60         C  0.83405823  0.88810532  0.30054366    -0.23100
C61         C  0.81384744  0.87892136  0.28217849    -0.00100
H62         H  0.84098714  0.92972000  0.31882643     0.13700
H63         H  0.85078966  0.87582149  0.30938472     0.13700
N64         N  0.69381591  0.89657368  0.21563543    -0.02600
C65         C  0.68362619  0.91931031  0.20174169     0.00000
C66         C  0.66208216  0.91125022  0.18429753    -0.22900
C67         C  0.65916117  0.88265855  0.18705368    -0.23100
C68         C  0.67874252  0.87422897  0.20635489    -0.00100
H69         H  0.64947633  0.92484343  0.17140280     0.13700
H70         H  0.64395784  0.86950558  0.17659691     0.13700
N71         N  0.77811747  0.06262843  0.30827472    -0.02600
C72         C  0.79259759  0.03908071  0.31519766     0.00000
C73         C  0.80915269  0.04417072  0.33825592    -0.22900
C74         C  0.80525881  0.07175862  0.34553331    -0.23100
C75         C  0.78615190  0.08263799  0.32698343    -0.00100
H76         H  0.82273606  0.02937868  0.34856669     0.13700
H77         H  0.81549352  0.08281900  0.36240933     0.13700
N78         N  0.70450997  0.06119358  0.21486662    -0.02600
C79         C  0.68786414  0.03945949  0.20658830     0.00000
C80         C  0.66758182  0.04906449  0.18846908    -0.22900
C81         C  0.67171705  0.07749042  0.18556891    -0.23100
C82         C  0.69460939  0.08423487  0.20169557    -0.00100
H83         H  0.65225788  0.03646669  0.17751790     0.13700
H84         H  0.65991389  0.09155687  0.17240479     0.13700
O85         O  0.74595122  0.33751721  0.18553807    -0.70900
O86         O  0.73178691  0.26003694  0.19058095    -0.71100
O87         O  0.72859425  0.30201346  0.22713039    -0.71000
O88         O  0.75025900  0.29463550  0.14960547    -0.71000
O89         O  0.79358189  0.29139827  0.16272666    -0.71000
O90         O  0.77148035  0.29272775  0.23859697    -0.71000
O91         O  0.77552252  0.25202581  0.19968039    -0.70900
O92         O  0.78813875  0.33185156  0.20101914    -0.71100
V93         V  0.73995985  0.29847583  0.18846846     1.35200
V94         V  0.78136017  0.29206094  0.20030851     1.35200
C95         C  0.76908925  0.34810142  0.19246310     0.78300
C96         C  0.75087698  0.24277876  0.19557631     0.78400
C97         C  0.74664935  0.29777451  0.24602728     0.78300
C98         C  0.77604446  0.29263754  0.14325888     0.78200
O99         O  0.70501543  0.28871122  0.36574446    -0.70900
O100        O  0.71620612  0.29238221  0.28624516    -0.71100
O101        O  0.72213343  0.25251498  0.32647960    -0.71000
O102        O  0.69886521  0.32812483  0.32628404    -0.71000
O103        O  0.74210846  0.34218160  0.33000321    -0.71000
O104        O  0.76505941  0.26577853  0.33415306    -0.71000
O105        O  0.75979259  0.30373920  0.29303858    -0.70900
O106        O  0.74742594  0.30416509  0.37160736    -0.71100
V107        V  0.71141536  0.29064069  0.32621261     1.35200
V108        V  0.75277921  0.30369754  0.33210360     1.35200
C109        C  0.72424321  0.29642195  0.38213821     0.78300
C110        C  0.74021235  0.29836617  0.27623200     0.78400
C111        C  0.74734695  0.24620707  0.33086630     0.78300
C112        C  0.71639043  0.34797838  0.32805986     0.78200
O113        O  0.69494014  0.17288355  0.16745443    -0.70900
O114        O  0.71392600  0.16747577  0.24505223    -0.71100
O115        O  0.71796699  0.20741882  0.20524655    -0.71000
O116        O  0.69023655  0.13314715  0.20698489    -0.71000
O117        O  0.73221234  0.11761148  0.19899215    -0.71000
O118        O  0.75894283  0.19319983  0.19133053    -0.71000
O119        O  0.75621204  0.15569210  0.23281145    -0.70900
O120        O  0.73519960  0.15490684  0.15691225    -0.71100
V121        V  0.70507756  0.16999229  0.20608034     1.35200
V122        V  0.74484930  0.15559443  0.19518845     1.35200
C123        C  0.71194688  0.16413112  0.14899620     0.78300
C124        C  0.73879228  0.16158673  0.25183622     0.78400
C125        C  0.74276136  0.21315168  0.19762222     0.78300
C126        C  0.70639351  0.11272436  0.20324862     0.78200
O127        O  0.79614345  0.13098499  0.31912985    -0.70900
O128        O  0.77965964  0.20884581  0.32468990    -0.71100
O129        O  0.80235648  0.17043872  0.35887954    -0.71000
O130        O  0.77368861  0.16910498  0.28528425    -0.71000
O131        O  0.73244167  0.15722507  0.30135427    -0.71000
O132        O  0.76054090  0.16277184  0.37583446    -0.71000
O133        O  0.73742103  0.19823311  0.33882489    -0.70900
O134        O  0.75550726  0.12073739  0.33748116    -0.71100
V135        V  0.78714211  0.16968596  0.32234996     1.35200
V136        V  0.74730514  0.15985741  0.33819076     1.35200
C137        C  0.77853666  0.11259916  0.32712824     0.78300
C138        C  0.75535439  0.21664678  0.33177972     0.78400
C139        C  0.78633520  0.16741898  0.37991263     0.78300
C140        C  0.74843619  0.16267250  0.28073463     0.78200
N141        N  0.77135942  0.39910652  0.20708154    -0.02600
C142        C  0.77538880  0.42380643  0.19291484     0.00000
C143        C  0.77831351  0.41831069  0.16450249    -0.22900
C144        C  0.77770021  0.38966207  0.16133691    -0.23100
C145        C  0.77396886  0.37836940  0.18776452    -0.00100
H146        H  0.78206495  0.43352115  0.14793983     0.13700
H147        H  0.77955423  0.37828277  0.14181946     0.13700
N148        N  0.71365901  0.39830660  0.31197881    -0.02600
C149        C  0.69650623  0.41998618  0.31894139     0.00000
C150        C  0.67891948  0.41224624  0.34089930    -0.22900
C151        C  0.68492080  0.38488537  0.34738824    -0.23100
C152        C  0.70628532  0.37692959  0.32950058    -0.00100
H153        H  0.66353170  0.42527803  0.35122901     0.13700
H154        H  0.67460391  0.37203895  0.36323294     0.13700
N155        N  0.79784743  0.55584796  0.24229659    -0.02600
C156        C  0.81154946  0.53081164  0.24162534     0.00000
C157        C  0.83987685  0.53552673  0.24612953    -0.22900
C158        C  0.84391740  0.56404555  0.24787049    -0.23100
C159        C  0.81793552  0.57594783  0.24492897    -0.00100
H160        H  0.85622109  0.51993194  0.24619235     0.13700
H161        H  0.86366463  0.57492201  0.25076933     0.13700
N162        N  0.68764111  0.55987630  0.28746983    -0.02600
C163        C  0.67711935  0.53706926  0.30143135     0.00000
C164        C  0.65330309  0.54432467  0.31636344    -0.22900
C165        C  0.64935538  0.57257198  0.31197195    -0.23100
C166        C  0.67064742  0.58147123  0.29417806    -0.00100
H167        H  0.64039679  0.53057012  0.32929206     0.13700
H168        H  0.63282868  0.58524868  0.32085865     0.13700
O169        O  0.68749127  0.82591845  0.19875090    -0.70900
O170        O  0.68246103  0.74915718  0.22020733    -0.71100
O171        O  0.64701632  0.78698822  0.19824156    -0.71000
O172        O  0.72312811  0.78868801  0.22085294    -0.71000
O173        O  0.71057934  0.80157091  0.26276342    -0.71000
O174        O  0.63384391  0.79739484  0.24066199    -0.71000
O175        O  0.67121615  0.76135547  0.26271126    -0.70900
O176        O  0.67366984  0.83792432  0.24046799    -0.71100
V177        V  0.68482587  0.78781045  0.21039463     1.35200
V178        V  0.67252626  0.79935432  0.25083528     1.35200
C179        C  0.68093587  0.84495280  0.21585787     0.78300
C180        C  0.67657007  0.74227510  0.24522097     0.78400
C181        C  0.62749584  0.79233442  0.21545175     0.78300
C182        C  0.72987446  0.79553879  0.24551351     0.78200
O183        O  0.85565345  0.66009623  0.26477073    -0.70900
O184        O  0.77673893  0.65705443  0.27909796    -0.71100
O185        O  0.81795334  0.61893823  0.26984021    -0.71000
O186        O  0.81518360  0.69814034  0.27413549    -0.71000
O187        O  0.81122768  0.70105716  0.22886731    -0.71000
O188        O  0.80632425  0.62082605  0.22594420    -0.71000
O189        O  0.76949932  0.66253278  0.23449285    -0.70900
O190        O  0.84736161  0.65841676  0.22005495    -0.71100
V191        V  0.81613141  0.65864105  0.27115486     1.35200
V192        V  0.80867450  0.66080475  0.22818594     1.35200
C193        C  0.86467155  0.65801553  0.23984425     0.78300
C194        C  0.75971975  0.65984878  0.25907804     0.78400
C195        C  0.81311821  0.60639066  0.24711466     0.78300
C196        C  0.81343839  0.71317650  0.25236120     0.78200
O197        O  0.67298652  0.69346946  0.23630367    -0.70900
O198        O  0.67453039  0.61701816  0.25919027    -0.71100
O199        O  0.63417762  0.65520259  0.25249781    -0.71000
O200        O  0.71318326  0.65539189  0.24311068    -0.71000
O201        O  0.71818985  0.66545666  0.28719183    -0.71000
O202        O  0.63873204  0.67077352  0.29494762    -0.71000
O203        O  0.67603377  0.63015418  0.30275505    -0.70900
O204        O  0.67989511  0.70631162  0.27940491    -0.71100
V205        V  0.67381514  0.65554415  0.24860398     1.35200
V206        V  0.67826407  0.66797242  0.29024649     1.35200
C207        C  0.67640391  0.71283796  0.25397074     0.78300
C208        C  0.67438965  0.61068601  0.28494020     0.78400
C209        C  0.62299471  0.66302986  0.27523684     0.78300
C210        C  0.72916894  0.66008026  0.26354422     0.78200
O211        O  0.81385865  0.84040058  0.24950182    -0.70900
O212        O  0.81863672  0.76102905  0.23579830    -0.71100
O213        O  0.77786070  0.79927193  0.23404309    -0.71000
O214        O  0.85518681  0.80246877  0.25020775    -0.71000
O215        O  0.84680369  0.79113147  0.29362255    -0.71000
O216        O  0.76792112  0.79411011  0.27834117    -0.71000
O217        O  0.80705517  0.75364589  0.27940648    -0.70900
O218        O  0.80777140  0.83130931  0.29384622    -0.71100
V219        V  0.81623394  0.80062424  0.24320163     1.35200
V220        V  0.80747464  0.79267959  0.28543523     1.35200
C221        C  0.81092271  0.84912249  0.27447360     0.78300
C222        C  0.81306866  0.74389704  0.25559159     0.78400
C223        C  0.75967123  0.79651012  0.25321016     0.78300
C224        C  0.86438304  0.79714598  0.27433164     0.78200
N225        N  0.40994700  0.77715012  0.20033396    -0.02600
C226        C  0.43294573  0.79184297  0.19086460     0.00000
C227        C  0.42514980  0.81045157  0.17006987    -0.22900
C228        C  0.39663313  0.80770835  0.16700865    -0.23100
C229        C  0.38778183  0.78721907  0.18568634    -0.00100
H230        H  0.43882883  0.82451848  0.15832702     0.13700
H231        H  0.38375506  0.81918408  0.15243411     0.13700
N232        N  0.40945193  0.70102816  0.29269026    -0.02600
C233        C  0.43047925  0.68220449  0.29599745     0.00000
C234        C  0.42170165  0.66083898  0.31385759    -0.22900
C235        C  0.39479463  0.66681803  0.32200654    -0.23100
C236        C  0.38789013  0.69173782  0.30908344    -0.00100
H237        H  0.43414983  0.64352931  0.32133389     0.13700
H238        H  0.38154279  0.65421662  0.33574679     0.13700
N239        N  0.57191634  0.67750192  0.27435347    -0.02600
C240        C  0.54793719  0.66499191  0.28414764     0.00000
C241        C  0.55369474  0.63886094  0.29526612    -0.22900
C242        C  0.58209702  0.63526533  0.29289540    -0.23100
C243        C  0.59276267  0.65913588  0.28014783    -0.00100
H244        H  0.53883111  0.62427374  0.30469891     0.13700
H245        H  0.59380126  0.61727453  0.29997514     0.13700
N246        N  0.57535900  0.78133498  0.21407388    -0.02600
C247        C  0.55333400  0.79282750  0.20016846     0.00000
C248        C  0.56301031  0.81399068  0.18249971    -0.22900
C249        C  0.59155712  0.81574578  0.18569072    -0.23100
C250        C  0.59855961  0.79576507  0.20533745    -0.00100
H251        H  0.55042969  0.82738908  0.16937448     0.13700
H252        H  0.60559825  0.83053320  0.17536344     0.13700
N253        N  0.91603200  0.67023905  0.23762007    -0.02600
C254        C  0.93887150  0.65728580  0.22632173     0.00000
C255        C  0.93112431  0.63160087  0.21529259    -0.22900
C256        C  0.90279344  0.62865881  0.21969559    -0.23100
C257        C  0.89419185  0.65247351  0.23352267    -0.00100
H258        H  0.94463243  0.61683317  0.20469455     0.13700
H259        H  0.88976517  0.61122899  0.21314800     0.13700
N260        N  0.91486944  0.78138085  0.28096991    -0.02600
C261        C  0.93963000  0.79533952  0.28511412     0.00000
C262        C  0.93481379  0.82399003  0.28479771    -0.22900
C263        C  0.90646675  0.82770630  0.28189530    -0.23100
C264        C  0.89460421  0.80134152  0.27999974    -0.00100
H265        H  0.95020167  0.84051613  0.28763718     0.13700
H266        H  0.89566069  0.84755930  0.28107595     0.13700
N267        N  0.07619506  0.69493336  0.20709908    -0.02600
C268        C  0.05485662  0.67782716  0.19891745     0.00000
C269        C  0.06292436  0.66235633  0.17580393    -0.22900
C270        C  0.09032994  0.66963686  0.16996339    -0.23100
C271        C  0.09785507  0.68965053  0.18940007    -0.00100
H272        H  0.05022642  0.64737808  0.16448619     0.13700
H273        H  0.10340869  0.66114914  0.15344746     0.13700
N274        N  0.06907380  0.74467131  0.31475272    -0.02600
C275        C  0.04414022  0.74848003  0.32847660     0.00000
C276        C  0.04871743  0.74781023  0.35718281    -0.22900
C277        C  0.07708580  0.74532378  0.36107883    -0.23100
C278        C  0.08905608  0.74373800  0.33478110    -0.00100
H279        H  0.03321322  0.75079195  0.37359870     0.13700
H280        H  0.08785144  0.74506235  0.38102444     0.13700
N281        N  0.27836851  0.80049976  0.91948195    -0.02600
C282        C  0.29124009  0.81139662  0.94259284     0.00000
C283        C  0.30613593  0.83536955  0.93516826    -0.22900
C284        C  0.30296259  0.83914565  0.90680383    -0.23100
C285        C  0.28590124  0.81765539  0.89762399    -0.00100
H286        H  0.31827950  0.84858747  0.94897278     0.13700
H287        H  0.31218407  0.85579697  0.89416110     0.13700
N288        N  0.20731352  0.70369214  0.92007653    -0.02600
C289        C  0.19161642  0.69598665  0.94293448     0.00000
C290        C  0.17087063  0.67725408  0.93490095    -0.22900
C291        C  0.17401498  0.67313666  0.90653407    -0.23100
C292        C  0.19667447  0.68929881  0.89806890    -0.00100
H293        H  0.15580423  0.66675522  0.94852590     0.13700
H294        H  0.16158770  0.65928740  0.89361550     0.13700
N295        N  0.29066658  0.78380761  0.08490487    -0.02600
C296        C  0.29948263  0.79934425  0.06231580     0.00000
C297        C  0.31890404  0.81921901  0.07089626    -0.22900
C298        C  0.32228289  0.81574873  0.09931694    -0.23100
C299        C  0.30499754  0.79375376  0.10730806    -0.00100
H300        H  0.33018137  0.83403438  0.05762593     0.13700
H301        H  0.33647358  0.82741418  0.11254770     0.13700
N302        N  0.19235641  0.71459099  0.08567783    -0.02600
C303        C  0.18103905  0.70285496  0.06220292     0.00000
C304        C  0.15620233  0.68916923  0.06898247    -0.22900
C305        C  0.15221957  0.69193328  0.09736992    -0.23100
C306        C  0.17450367  0.70751288  0.10715283    -0.00100
H307        H  0.14255078  0.67809593  0.05473040     0.13700
H308        H  0.13496127  0.68334496  0.10964988     0.13700
O309        O  0.16781136  0.73570122  0.14792033    -0.70900
O310        O  0.16839703  0.74778884  0.22690622    -0.71100
O311        O  0.20555668  0.75597308  0.18461602    -0.71000
O312        O  0.13072762  0.72762298  0.19023750    -0.71000
O313        O  0.14696040  0.68521227  0.19245688    -0.71000
O314        O  0.22100118  0.71407859  0.19331955    -0.71000
O315        O  0.18086224  0.70445343  0.23286642    -0.70900
O316        O  0.18682762  0.69494519  0.15371600    -0.71100
V317        V  0.16844513  0.74103012  0.18750227     1.35200
V318        V  0.18366417  0.70053455  0.19314456     1.35200
C319        C  0.17760113  0.71350502  0.13733071     0.78300
C320        C  0.17390392  0.72777401  0.24338186     0.78400
C321        C  0.22597475  0.73963506  0.18804064     0.78300
C322        C  0.12626394  0.70144322  0.19128822     0.78200
O323        O  0.29981744  0.79845824  0.15680639    -0.70900
O324        O  0.30187557  0.77034705  0.23163576    -0.71100
O325        O  0.33939234  0.79477684  0.19616966    -0.71000
O326        O  0.26207404  0.77423972  0.19238323    -0.71000
O327        O  0.27387525  0.73248631  0.17869500    -0.71000
O328        O  0.35045193  0.75427664  0.17903901    -0.71000
O329        O  0.31437928  0.72951550  0.21598916    -0.70900
O330        O  0.30895247  0.75680183  0.14101204    -0.71100
V331        V  0.30096092  0.78367614  0.19395404     1.35200
V332        V  0.31180426  0.74413881  0.17892118     1.35200
C333        C  0.30394765  0.78236918  0.13617036     0.78300
C334        C  0.30800159  0.74500602  0.23646721     0.78400
C335        C  0.35811281  0.77804762  0.18789099     0.78300
C336        C  0.25503846  0.74944646  0.18599741     0.78200
O337        O  0.17405666  0.75518859  0.28545218    -0.70900
O338        O  0.17557815  0.76171366  0.36534541    -0.71100
O339        O  0.21478728  0.75517188  0.32446294    -0.71000
O340        O  0.13508172  0.76219883  0.32665521    -0.71000
O341        O  0.13079013  0.71696484  0.33065556    -0.71000
O342        O  0.20983672  0.70994860  0.32834266    -0.71000
O343        O  0.17070917  0.71648142  0.36903665    -0.70900
O344        O  0.17002518  0.70993232  0.28979173    -0.71100
V345        V  0.17479070  0.75774315  0.32551142     1.35200
V346        V  0.17045708  0.71427061  0.32934745     1.35200
C347        C  0.17242517  0.73123804  0.27408695     0.78300
C348        C  0.17270044  0.74011379  0.38068258     0.78400
C349        C  0.22575832  0.73113887  0.32550020     0.78300
C350        C  0.11948344  0.74080523  0.32982269     0.78200
O351        O  0.33979899  0.68527408  0.30385960    -0.70900
O352        O  0.26393211  0.70317835  0.31318754    -0.71100
O353        O  0.30171644  0.70848959  0.27065219    -0.71000
O354        O  0.30336051  0.68138671  0.34625591    -0.71000
O355        O  0.31425493  0.72335703  0.36033807    -0.71000
O356        O  0.31298467  0.75012412  0.28541400    -0.71000
O357        O  0.27451873  0.74528199  0.32706999    -0.70900
O358        O  0.35251223  0.72673537  0.31795998    -0.71100
V359        V  0.30229497  0.69553026  0.30870725     1.35200
V360        V  0.31337087  0.73562815  0.32242011     1.35200
C361        C  0.35906130  0.70231260  0.30965737     0.78300
C362        C  0.25603101  0.72673551  0.32190777     0.78400
C363        C  0.30759477  0.73397903  0.26528668     0.78300
C364        C  0.30953573  0.69788685  0.36607046     0.78200
N365        N  0.23221823  0.79375920  0.57770024    -0.02600
C366        C  0.22791718  0.80517115  0.55181694     0.00000
C367        C  0.22880315  0.83419428  0.55381404    -0.22900
C368        C  0.23225324  0.84071479  0.58167553    -0.23100
C369        C  0.23387825  0.81558097  0.59591654    -0.00100
H370        H  0.22561464  0.84910221  0.53699064     0.13700
H371        H  0.23317601  0.86153453  0.59060814     0.13700
N372        N  0.28028875  0.68533930  0.58216614    -0.02600
C373        C  0.29430139  0.67339455  0.56019674     0.00000
C374        C  0.30888235  0.65024925  0.56951227    -0.22900
C375        C  0.30421822  0.64816803  0.59796810    -0.23100
C376        C  0.28660665  0.66984649  0.60509949    -0.00100
H377        H  0.32149651  0.63631023  0.55686298     0.13700
H378        H  0.31265198  0.63247451  0.61193274     0.13700
N379        N  0.29834749  0.69525036  0.41783525    -0.02600
C380        C  0.30991961  0.68176700  0.44010197     0.00000
C381        C  0.33256678  0.66613521  0.43113985    -0.22900
C382        C  0.33467517  0.66965787  0.40247794    -0.23100
C383        C  0.31338393  0.68746755  0.39489699    -0.00100
H384        H  0.34616497  0.65363560  0.44411304     0.13700
H385        H  0.35033453  0.66062507  0.38874247     0.13700
N386        N  0.19101193  0.74461433  0.42979539    -0.02600
C387        C  0.17889032  0.74716145  0.45567111     0.00000
C388        C  0.15006654  0.74413723  0.45331947    -0.22900
C389        C  0.14427517  0.74158591  0.42525841    -0.23100
C390        C  0.16967009  0.74248241  0.41135375    -0.00100
H391        H  0.13470421  0.74611107  0.47002920     0.13700
H392        H  0.12366801  0.73976720  0.41597515     0.13700
O393        O  0.21646740  0.85040329  0.68161650    -0.70900
O394        O  0.22982221  0.77225878  0.68450032    -0.71100
O395        O  0.22920949  0.81389576  0.72266076    -0.71000
O396        O  0.21798465  0.80889332  0.64339377    -0.71000
O397        O  0.26199215  0.81895626  0.63668319    -0.71000
O398        O  0.27395324  0.81892445  0.71515414    -0.71000
O399        O  0.27408974  0.77922156  0.67564251    -0.70900
O400        O  0.26105656  0.85839381  0.67686939    -0.71100
V401        V  0.22423432  0.81146906  0.68294928     1.35200
V402        V  0.26692024  0.81873827  0.67616822     1.35200
C403        C  0.23640300  0.86779599  0.67910808     0.78300
C404        C  0.25394954  0.76232301  0.68049633     0.78400
C405        C  0.25374222  0.81673836  0.73227090     0.78300
C406        C  0.23819232  0.81370675  0.62656293     0.78200
O407        O  0.25573172  0.71709466  0.82390345    -0.70900
O408        O  0.23081738  0.64125185  0.82425169    -0.71100
O409        O  0.25428459  0.67621304  0.78571384    -0.71000
O410        O  0.23188220  0.68283227  0.86258901    -0.71000
O411        O  0.19050051  0.69573231  0.84932082    -0.71000
O412        O  0.21271209  0.68892270  0.77291372    -0.71000
O413        O  0.18923381  0.65447893  0.81196693    -0.70900
O414        O  0.21435848  0.73071066  0.81134006    -0.71100
V415        V  0.24235515  0.67956990  0.82387747     1.35200
V416        V  0.20257005  0.69227326  0.81152850     1.35200
C417        C  0.23941187  0.73676859  0.81759543     0.78300
C418        C  0.20569792  0.63501249  0.81878398     0.78400
C419        C  0.23729873  0.68165403  0.76624440     0.78300
C420        C  0.20712089  0.68999834  0.86889058     0.78200
O421        O  0.30425476  0.84533004  0.81042629    -0.70900
O422        O  0.27551655  0.77072856  0.81181782    -0.71100
O423        O  0.28296765  0.81017103  0.77172532    -0.71000
O424        O  0.29668056  0.80591956  0.85020121    -0.71000
O425        O  0.25577092  0.82376090  0.85826207    -0.71000
O426        O  0.24030868  0.82363495  0.78000122    -0.71000
O427        O  0.23391538  0.78632894  0.82160500    -0.70900
O428        O  0.26214011  0.86142487  0.81602544    -0.71100
V429        V  0.28900621  0.80831869  0.81110105     1.35200
V430        V  0.24883793  0.82351104  0.81891068     1.35200
C431        C  0.28814535  0.86608732  0.81292122     0.78300
C432        C  0.24992119  0.76581005  0.81702876     0.78400
C433        C  0.25915067  0.81693728  0.76255445     0.78300
C434        C  0.27867619  0.81462575  0.86763557     0.78200
O435        O  0.29494137  0.67674252  0.65352370    -0.70900
O436        O  0.27157588  0.68354561  0.72962779    -0.71100
O437        O  0.28539207  0.64085790  0.69563245    -0.71000
O438        O  0.28092330  0.72045488  0.68686980    -0.71000
O439        O  0.23650989  0.71593763  0.67823835    -0.71000
O440        O  0.24338047  0.63680725  0.67889788    -0.71000
O441        O  0.22846830  0.67602384  0.71729743    -0.70900
O442        O  0.25149208  0.67688366  0.64035734    -0.71100
V443        V  0.28240255  0.68047268  0.69122336     1.35200
V444        V  0.24074620  0.67650989  0.67901886     1.35200
C445        C  0.27723341  0.67533118  0.63406336     0.78300
C446        C  0.24611417  0.68019818  0.73653821     0.78400
C447        C  0.26557632  0.62537304  0.68721282     0.78300
C448        C  0.25757220  0.73170905  0.68168401     0.78200
O449        O  0.82175870  0.18539295  0.66125620    -0.70900
O450        O  0.82577335  0.19963012  0.73926902    -0.71100
O451        O  0.78606783  0.20471594  0.70020284    -0.71000
O452        O  0.86209156  0.18042747  0.70000009    -0.71000
O453        O  0.87633332  0.22332695  0.69314006    -0.71000
O454        O  0.80026513  0.24719626  0.69070659    -0.71000
O455        O  0.83826418  0.24281450  0.73063165    -0.70900
O456        O  0.83721158  0.22752271  0.65260395    -0.71100
V457        V  0.82425016  0.19336117  0.70007807     1.35200
V458        V  0.83780570  0.23435916  0.69186365     1.35200
C459        C  0.82872839  0.20406034  0.64363896     0.78300
C460        C  0.83187495  0.22383224  0.74815132     0.78400
C461        C  0.78035424  0.23020197  0.69573436     0.78300
C462        C  0.88222309  0.19769344  0.69660462     0.78200
O463        O  0.69645981  0.21566778  0.87598114    -0.70900
O464        O  0.69339962  0.24428994  0.80135396    -0.71100
O465        O  0.65576629  0.22060796  0.83700717    -0.71000
O466        O  0.73336919  0.23928262  0.83964675    -0.71000
O467        O  0.74330444  0.19724269  0.82534454    -0.71000
O468        O  0.66567198  0.17983924  0.81972344    -0.71000
O469        O  0.70420321  0.20308609  0.78534965    -0.70900
O470        O  0.70442521  0.17399334  0.85956766    -0.71100
V471        V  0.69483084  0.22913714  0.83825011     1.35200
V472        V  0.70429249  0.18938377  0.82279083     1.35200
C473        C  0.70068195  0.18985832  0.88039052     0.78300
C474        C  0.69874640  0.22858210  0.78074781     0.78400
C475        C  0.64745404  0.19727544  0.82752955     0.78300
C476        C  0.75150034  0.22134209  0.83288388     0.78200
O477        O  0.70715919  0.26443395  0.74682732    -0.70900
O478        O  0.71069814  0.29145560  0.67169315    -0.71100
O479        O  0.67185031  0.29123941  0.71259096    -0.71000
O480        O  0.74642460  0.26490501  0.70552927    -0.71000
O481        O  0.73093369  0.22437354  0.69146349    -0.71000
O482        O  0.65584169  0.25105730  0.69817122    -0.71000
O483        O  0.69575620  0.25101913  0.65680966    -0.70900
O484        O  0.69184603  0.22412429  0.73193549    -0.71100
V485        V  0.70876739  0.27716099  0.70892627     1.35200
V486        V  0.69380451  0.23846283  0.69481993     1.35200
C487        C  0.69907466  0.23959911  0.75206444     0.78300
C488        C  0.70396826  0.27579036  0.65149986     0.78400
C489        C  0.65116368  0.27580653  0.70654339     0.78300
C490        C  0.75139445  0.24021074  0.69743086     0.78200
O491        O  0.83902813  0.22534927  0.87361473    -0.70900
O492        O  0.83630639  0.20991866  0.79561588    -0.71100
O493        O  0.87750794  0.22511274  0.83130488    -0.71000
O494        O  0.79923960  0.20945164  0.83731622    -0.71000
O495        O  0.79003678  0.25306430  0.82790888    -0.71000
O496        O  0.86843645  0.26918918  0.82464084    -0.71000
O497        O  0.82946771  0.25416727  0.78718168    -0.70900
O498        O  0.82855984  0.26876783  0.86517705    -0.71100
V499        V  0.83794194  0.21832495  0.83435153     1.35200
V500        V  0.82933473  0.26045132  0.82635655     1.35200
C501        C  0.83336932  0.24956010  0.88269071     0.78300
C502        C  0.83241583  0.22951862  0.77819588     0.78400
C503        C  0.88636319  0.24989979  0.82720959     0.78300
C504        C  0.78142793  0.22835080  0.83300637     0.78200
N505        N  0.20126424  0.42068021  0.78097082    -0.02600
C506        C  0.18729601  0.44242519  0.79324921     0.00000
C507        C  0.16234504  0.43288276  0.80499823    -0.22900
C508        C  0.16083134  0.40458599  0.80019561    -0.23100
C509        C  0.18473806  0.39773396  0.78541679    -0.00100
H510        H  0.14683542  0.44533500  0.81586298     0.13700
H511        H  0.14408741  0.39048356  0.80674807     0.13700
N512        N  0.31503582  0.42570477  0.74316922    -0.02600
C513        C  0.32805884  0.45134543  0.74156775     0.00000
C514        C  0.35675566  0.44786958  0.74374282    -0.22900
C515        C  0.36165658  0.41953540  0.74505419    -0.23100
C516        C  0.33588177  0.40636329  0.74422541    -0.00100
H517        H  0.37263450  0.46421058  0.74313853     0.13700
H518        H  0.38188328  0.40958176  0.74654205     0.13700
N519        N  0.26978994  0.57662165  0.70687621    -0.02600
C520        C  0.27434513  0.55085735  0.69550313     0.00000
C521        C  0.27418525  0.55302126  0.66645959    -0.22900
C522        C  0.27115657  0.58091940  0.65986120    -0.23100
C523        C  0.26904366  0.59484083  0.68500618    -0.00100
H524        H  0.27859698  0.53642800  0.65167306     0.13700
H525        H  0.27128667  0.59012402  0.63907282     0.13700
N526        N  0.20537052  0.58366758  0.80712101    -0.02600
C527        C  0.19012744  0.56094643  0.81585262     0.00000
C528        C  0.17115007  0.56883513  0.83641235    -0.22900
C529        C  0.17443692  0.59740894  0.83994567    -0.23100
C530        C  0.19553831  0.60587654  0.82168446    -0.00100
H531        H  0.15646593  0.55528927  0.84753106     0.13700
H532        H  0.16282702  0.61051921  0.85434526     0.13700
N533        N  0.23515205  0.91892152  0.69451190    -0.02600
C534        C  0.22240210  0.94217125  0.68385858     0.00000
C535        C  0.21000303  0.93580049  0.65857592    -0.22900
C536        C  0.21460370  0.90782738  0.65370147    -0.23100
C537        C  0.23015800  0.89795021  0.67582567    -0.00100
H538        H  0.19852708  0.94999247  0.64525555     0.13700
H539        H  0.20704044  0.89581699  0.63607149     0.13700
N540        N  0.29249747  0.91721294  0.79863144    -0.02600
C541        C  0.30712987  0.93974257  0.80854885     0.00000
C542        C  0.32408321  0.93107735  0.83030829    -0.22900
C543        C  0.31960084  0.90271695  0.83397655    -0.23100
C544        C  0.29992450  0.89481570  0.81451224    -0.00100
H545        H  0.33740230  0.94429163  0.84299927     0.13700
H546        H  0.32895250  0.88950487  0.84977418     0.13700
N547        N  0.21734132  0.08337320  0.71360035    -0.02600
C548        C  0.20985962  0.06059349  0.69806078     0.00000
C549        C  0.19057348  0.06851701  0.67807945    -0.22900
C550        C  0.18596533  0.09673938  0.68146138    -0.23100
C551        C  0.20233757  0.10524520  0.70355387    -0.00100
H552        H  0.18028523  0.05493528  0.66317032     0.13700
H553        H  0.17183017  0.10957695  0.66942246     0.13700
N554        N  0.31194835  0.08255081  0.78558159    -0.02600
C555        C  0.32106401  0.05919462  0.79942577     0.00000
C556        C  0.34467086  0.06571525  0.81474627    -0.22900
C557        C  0.35002279  0.09382644  0.81084691    -0.23100
C558        C  0.32982466  0.10367566  0.79294275    -0.00100
H559        H  0.35666173  0.05146809  0.82753660     0.13700
H560        H  0.36676383  0.10588298  0.82024713     0.13700
N561        N  0.93647983  0.25925769  0.80910624    -0.02600
C562        C  0.95810333  0.27445163  0.82042305     0.00000
C563        C  0.95230565  0.27955789  0.84848295    -0.22900
C564        C  0.92594022  0.26949103  0.85412490    -0.23100
C565        C  0.91646080  0.25736010  0.82985826    -0.00100
H566        H  0.96546794  0.29059670  0.86319934     0.13700
H567        H  0.91439755  0.27180395  0.87361589     0.13700
N568        N  0.93506090  0.19259079  0.70867688    -0.02600
C569        C  0.95650839  0.18166931  0.69262939     0.00000
C570        C  0.94624482  0.16916957  0.66873838    -0.22900
C571        C  0.91794118  0.17245223  0.66912743    -0.23100
C572        C  0.91140839  0.18731827  0.69295890    -0.00100
H573        H  0.95840351  0.15973094  0.65203456     0.13700
H574        H  0.90367838  0.16609257  0.65280877     0.13700
N575        N  0.09130063  0.29801430  0.77472016    -0.02600
C576        C  0.06801614  0.31365903  0.78165679     0.00000
C577        C  0.07350241  0.34172346  0.77569094    -0.22900
C578        C  0.10091939  0.34411169  0.76785913    -0.23100
C579        C  0.11149122  0.31744552  0.76778714    -0.00100
H580        H  0.05900435  0.35897402  0.77609792     0.13700
H581        H  0.11217292  0.36341215  0.76315103     0.13700
N582        N  0.09691536  0.19661400  0.71235506    -0.02600
C583        C  0.07800434  0.18820814  0.69226335     0.00000
C584        C  0.09100045  0.17483162  0.67024860    -0.22900
C585        C  0.11879100  0.17467674  0.67597233    -0.23100
C586        C  0.12224509  0.18782031  0.70145283    -0.00100
H587        H  0.08102799  0.16531744  0.65231483     0.13700
H588        H  0.13497682  0.16529087  0.66309923     0.13700
O589        O  0.19214723  0.21763058  0.75993866    -0.70900
O590        O  0.19738817  0.14081341  0.73862093    -0.71100
O591        O  0.23193353  0.17890286  0.76204311    -0.71000
O592        O  0.15678146  0.18037276  0.73683847    -0.71000
O593        O  0.17112240  0.19609497  0.69652867    -0.71000
O594        O  0.24682462  0.18830575  0.71976816    -0.71000
O595        O  0.20845236  0.15408657  0.69625750    -0.70900
O596        O  0.20915576  0.22997100  0.71918092    -0.71100
V597        V  0.19479612  0.17958736  0.74857657     1.35200
V598        V  0.20868661  0.19180920  0.70872579     1.35200
C599        C  0.20014841  0.23673262  0.74313211     0.78300
C600        C  0.20328891  0.13449006  0.71349065     0.78400
C601        C  0.25211181  0.18344253  0.74528422     0.78300
C602        C  0.15094350  0.18955171  0.71279980     0.78200
O603        O  0.19337376  0.36189497  0.75187038    -0.70900
O604        O  0.19629986  0.28484177  0.73218751    -0.71100
O605        O  0.15489649  0.32130992  0.74318699    -0.71000
O606        O  0.23441343  0.32510626  0.74068431    -0.71000
O607        O  0.23615472  0.31630939  0.78537250    -0.71000
O608        O  0.15634373  0.30717078  0.78648884    -0.71000
O609        O  0.19977710  0.27347683  0.77623776    -0.70900
O610        O  0.19180199  0.34988113  0.79589892    -0.71100
V611        V  0.19479459  0.32303804  0.74282390     1.35200
V612        V  0.19611208  0.31194083  0.78517362     1.35200
C613        C  0.19100915  0.36880874  0.77732115     0.78300
C614        C  0.19872097  0.26617810  0.75087571     0.78400
C615        C  0.14202818  0.31348440  0.76522130     0.78300
C616        C  0.24887079  0.32151663  0.76244105     0.78200
O617        O  0.33692857  0.36422220  0.77066322    -0.70900
O618        O  0.33472412  0.28550811  0.78039539    -0.71100
O619        O  0.37566967  0.32337047  0.76924856    -0.71000
O620        O  0.29582724  0.32570806  0.78062706    -0.71000
O621        O  0.29067374  0.31896684  0.73594420    -0.71000
O622        O  0.36927375  0.32046312  0.72440449    -0.71000
O623        O  0.33118439  0.27973010  0.73539122    -0.70900
O624        O  0.32871010  0.35977518  0.72621584    -0.71100
V625        V  0.33569335  0.32465236  0.77436535     1.35200
V626        V  0.33005163  0.31979259  0.73135111     1.35200
C627        C  0.33278736  0.37557038  0.74715601     0.78300
C628        C  0.33287464  0.26917517  0.75979772     0.78400
C629        C  0.38599391  0.32176791  0.74467609     0.78300
C630        C  0.27971949  0.32222802  0.75988854     0.78200
O631        O  0.35865342  0.18987541  0.81074196    -0.70900
O632        O  0.28509801  0.19000642  0.78129863    -0.71100
O633        O  0.31862993  0.15106381  0.80305532    -0.71000
O634        O  0.32507019  0.22942223  0.78889863    -0.71000
O635        O  0.33865700  0.22139379  0.74606124    -0.71000
O636        O  0.33841100  0.14308629  0.76275927    -0.71000
O637        O  0.30162015  0.17932860  0.74008528    -0.70900
O638        O  0.37575155  0.18536311  0.76860920    -0.71100
V639        V  0.32216823  0.19008889  0.79515994     1.35200
V640        V  0.33831692  0.18238907  0.75514842     1.35200
C641        C  0.37972316  0.18750809  0.79470624     0.78300
C642        C  0.28079690  0.18413162  0.75587432     0.78400
C643        C  0.32799171  0.13369835  0.78547080     0.78300
C644        C  0.33218465  0.23875394  0.76494596     0.78200
N645        N  0.59628849  0.20006512  0.81303128    -0.02600
C646        C  0.61752431  0.18913334  0.82842198     0.00000
C647        C  0.60761074  0.16786031  0.84564302    -0.22900
C648        C  0.57932767  0.16556093  0.84104325    -0.23100
C649        C  0.57278720  0.18520651  0.82078111    -0.00100
H650        H  0.61966434  0.15549300  0.86020942     0.13700
H651        H  0.56492757  0.15123904  0.85155063     0.13700
N652        N  0.60015750  0.27826500  0.72217422    -0.02600
C653        C  0.57849443  0.29570147  0.71595081     0.00000
C654        C  0.58782487  0.31625159  0.69736224    -0.22900
C655        C  0.61567971  0.31129096  0.69188621    -0.23100
C656        C  0.62265510  0.28771714  0.70703790    -0.00100
H657        H  0.57533134  0.33255559  0.68795701     0.13700
H658        H  0.62925115  0.32326248  0.67790008     0.13700
N659        N  0.43124007  0.19909035  0.79864585    -0.02600
C660        C  0.45297138  0.18722041  0.81253643     0.00000
C661        C  0.44305090  0.16549281  0.82937119    -0.22900
C662        C  0.41453791  0.16388231  0.82567642    -0.23100
C663        C  0.40792559  0.18450597  0.80654750    -0.00100
H664        H  0.45546921  0.15147869  0.84200308     0.13700
H665        H  0.40037351  0.14852811  0.83495957     0.13700
N666        N  0.43687259  0.30512913  0.74289685    -0.02600
C667        C  0.46052034  0.31554344  0.72995407     0.00000
C668        C  0.45501235  0.34146430  0.71823780    -0.22900
C669        C  0.42723512  0.34698986  0.72347608    -0.23100
C670        C  0.41650793  0.32462068  0.73876249    -0.00100
H671        H  0.46961344  0.35476978  0.70671617     0.13700
H672        H  0.41585351  0.36517368  0.71634227     0.13700
C673        C  0.43649612  0.25311133  0.74132643    -0.01000
C674        C  0.43361208  0.27820793  0.75667701     0.08700
C675        C  0.42687881  0.27656295  0.78555122    -0.01100
C676        C  0.42379123  0.25021103  0.79864233    -0.01100
C677        C  0.43132072  0.22563607  0.78416763     0.08800
C678        C  0.43681276  0.22703694  0.75526559    -0.01300
Br679      Br  0.44244552  0.19294366  0.73465468     0.00200
Br680      Br  0.43609366  0.25390176  0.70116144     0.00100
Br681      Br  0.40744115  0.24761944  0.83576770     0.00100
Br682      Br  0.42296288  0.30997637  0.80784681     0.00100
C683        C  0.50694137  0.30415103  0.75187041    -0.01000
C684        C  0.48911929  0.30271298  0.72848227     0.08700
C685        C  0.50092787  0.29520493  0.70221693    -0.01100
C686        C  0.52942914  0.28776672  0.69993552    -0.01100
C687        C  0.54781846  0.29188995  0.72263553     0.08800
C688        C  0.53614499  0.29996413  0.74875354    -0.01300
Br689      Br  0.55976426  0.30975733  0.77952105     0.00200
Br690      Br  0.49235442  0.31687301  0.78733426     0.00100
Br691      Br  0.54389612  0.27410740  0.66456555     0.00100
Br692      Br  0.47982523  0.29950771  0.66811942     0.00100
C693        C  0.52833296  0.16878015  0.79759377    -0.01000
C694        C  0.54319831  0.19003908  0.81199473     0.08700
C695        C  0.52786204  0.21214348  0.82419728    -0.01100
C696        C  0.49835649  0.21297043  0.82216767    -0.01100
C697        C  0.48363250  0.19193524  0.80751288     0.08800
C698        C  0.49903781  0.17040875  0.79436562    -0.01300
Br699      Br  0.47953041  0.14101336  0.77442694     0.00200
Br700      Br  0.54676290  0.13461592  0.78654267     0.00100
Br701      Br  0.47826668  0.24075984  0.84314946     0.00100
Br702      Br  0.54633881  0.23811746  0.84882381     0.00100
C703        C  0.60710466  0.24793549  0.79431950    -0.01000
C704        C  0.59910818  0.21968733  0.78989138     0.08700
C705        C  0.59547305  0.21039979  0.76205884    -0.01100
C706        C  0.59416004  0.22988678  0.73987384    -0.01100
C707        C  0.60115636  0.25804720  0.74461550     0.08800
C708        C  0.61082382  0.26610546  0.77122144    -0.01300
Br709      Br  0.63029776  0.30146571  0.77568206     0.00200
Br710      Br  0.61167314  0.26282452  0.83145100     0.00100
Br711      Br  0.58477359  0.21800452  0.70262992     0.00100
Br712      Br  0.59748845  0.17123287  0.75353910     0.00100
C713        C  0.10706646  0.24762804  0.77326454    -0.01000
C714        C  0.09098746  0.27007293  0.76245880     0.08700
C715        C  0.07356396  0.26422674  0.73947558    -0.01100
C716        C  0.06944381  0.23641608  0.73132615    -0.01100
C717        C  0.09168280  0.21778057  0.73422673     0.08800
C718        C  0.10734969  0.22117021  0.75916450    -0.01300
Br719      Br  0.11679352  0.18830329  0.78036794     0.00200
Br720      Br  0.12631480  0.25236934  0.80814094     0.00100
Br721      Br  0.03568901  0.22120577  0.74774250     0.00100
Br722      Br  0.05379364  0.29291462  0.71965874     0.00100
C723        C  0.03308377  0.16281982  0.70236998    -0.01000
C724        C  0.04687538  0.18779719  0.69405552     0.08700
C725        C  0.03080545  0.21006159  0.68321962    -0.01100
C726        C  0.00124552  0.20942114  0.68605754    -0.01100
C727        C  0.98743622  0.18482362  0.69574777     0.08800
C728        C  0.00373316  0.16064691  0.70075480    -0.01300
Br729      Br  0.98615858  0.12397238  0.70369490     0.00200
Br730      Br  0.05454667  0.13096218  0.71461369     0.00100
Br731      Br  0.97961148  0.24126291  0.67439160     0.00100
Br732      Br  0.04925615  0.24077813  0.66392415     0.00100
C733        C  0.99357777  0.31404432  0.81435671    -0.01000
C734        C  0.98342700  0.28733714  0.80600058     0.08700
C735        C  0.00034246  0.27229478  0.78736164    -0.01100
C736        C  0.02954334  0.27641313  0.78920130    -0.01100
C737        C  0.03960173  0.30390296  0.79290192     0.08800
C738        C  0.02155388  0.32226462  0.80814632    -0.01300
Br739      Br  0.03583706  0.35501985  0.82731937     0.00200
Br740      Br  0.96826294  0.34110557  0.83064921     0.00100
Br741      Br  0.04730930  0.24984803  0.81332234     0.00100
Br742      Br  0.98657099  0.27396387  0.74977315     0.00100
C743        C  0.95605943  0.21898089  0.78203590    -0.01000
C744        C  0.93729868  0.24182899  0.78425761     0.08700
C745        C  0.91666612  0.24408759  0.76366673    -0.01100
C746        C  0.91269328  0.22159463  0.74536151    -0.01100
C747        C  0.93635945  0.20740066  0.73572658     0.08800
C748        C  0.95628854  0.20209728  0.75732314    -0.01300
Br749      Br  0.97501785  0.16688591  0.75989649     0.00200
Br750      Br  0.97871743  0.20912770  0.81382380     0.00100
Br751      Br  0.88898625  0.19343027  0.76242777     0.00100
Br752      Br  0.89297615  0.27607696  0.76099493     0.00100
C753        C  0.26050966  0.07982015  0.77878463    -0.01000
C754        C  0.28768033  0.08491290  0.76779463     0.08700
C755        C  0.29057746  0.09313707  0.73935511    -0.01100
C756        C  0.26667739  0.09578682  0.72259615    -0.01100
C757        C  0.24059975  0.08555648  0.73243499     0.08800
C758        C  0.23735947  0.07833964  0.76079972    -0.01300
Br759      Br  0.20080089  0.06827692  0.77505611     0.00200
Br760      Br  0.25421177  0.07868841  0.81850602     0.00100
Br761      Br  0.26958744  0.11371522  0.68625906     0.00100
Br762      Br  0.32688319  0.09852180  0.72200303     0.00100
C763        C  0.31563164  0.01270711  0.77515676    -0.01000
C764        C  0.30951178  0.02989204  0.79839834     0.08700
C765        C  0.29903670  0.01699104  0.82322094    -0.01100
C766        C  0.29362059  0.98784408  0.82413054    -0.01100
C767        C  0.30279363  0.97029717  0.80209312     0.08800
C768        C  0.31386455  0.98314068  0.77752238    -0.01300
Br769      Br  0.33147223  0.96122554  0.74883227     0.00200
Br770      Br  0.33104622  0.02913457  0.74140251     0.00100
Br771      Br  0.27553733  0.97164294  0.85692971     0.00100
Br772      Br  0.29624148  0.03795060  0.85774178     0.00100
C773        C  0.24514674  0.98924131  0.69159657    -0.01000
C774        C  0.22185193  0.97119813  0.69567891     0.08700
C775        C  0.19605495  0.98302772  0.70421060    -0.01100
C776        C  0.19413935  0.01194685  0.70994981    -0.01100
C777        C  0.21660507  0.03034917  0.70322087     0.08800
C778        C  0.24225524  0.01864005  0.69416984    -0.01300
Br779      Br  0.27224036  0.04224136  0.68060714     0.00200
Br780      Br  0.27981360  0.97436069  0.67733332     0.00100
Br781      Br  0.15935013  0.02681466  0.72445279     0.00100
Br782      Br  0.16179655  0.96118936  0.70315464     0.00100
C783        C  0.24870189  0.92123370  0.77210412    -0.01000
C784        C  0.27741120  0.91557495  0.77276012     0.08700
C785        C  0.29115036  0.90663022  0.74813781    -0.01100
C786        C  0.27797200  0.90952416  0.72207296    -0.01100
C787        C  0.24926541  0.91637600  0.72107279     0.08800
C788        C  0.23431821  0.91966494  0.74654879    -0.01300
Br789      Br  0.19426449  0.91746545  0.74718573     0.00200
Br790      Br  0.22911309  0.92906712  0.80659830     0.00100
Br791      Br  0.30010329  0.90570229  0.68829681     0.00100
Br792      Br  0.32774325  0.88982382  0.75027105     0.00100
C793        C  0.25187178  0.58170288  0.78363123    -0.01000
C794        C  0.22267931  0.58538513  0.78233954     0.08700
C795        C  0.21014401  0.59066416  0.75641437    -0.01100
C796        C  0.22526306  0.58629174  0.73160150    -0.01100
C797        C  0.25445011  0.58133471  0.73256165     0.08800
C798        C  0.26792168  0.58051772  0.75865926    -0.01300
Br799      Br  0.30800088  0.57731438  0.75984062     0.00200
Br800      Br  0.26975504  0.58000560  0.81945285     0.00100
Br801      Br  0.20474180  0.58366156  0.69701521     0.00100
Br802      Br  0.17317097  0.60647789  0.75492976     0.00100
C803        C  0.32675562  0.49305293  0.70865119    -0.01000
C804        C  0.31511795  0.47838345  0.73202595     0.08700
C805        C  0.29136238  0.48997809  0.74540307    -0.01100
C806        C  0.27628785  0.51158532  0.73220680    -0.01100
C807        C  0.28868424  0.52704485  0.70993917     0.08800
C808        C  0.31542691  0.51880382  0.70012095    -0.01300
Br809      Br  0.33775851  0.54316777  0.67598883     0.00200
Br810      Br  0.35675351  0.47768796  0.68603601     0.00100
Br811      Br  0.23777879  0.51659420  0.74271162     0.00100
Br812      Br  0.28208311  0.48070081  0.78362728     0.00100
C813        C  0.21075899  0.48398031  0.81589645    -0.01000
C814        C  0.19474092  0.47290024  0.79369801     0.08700
C815        C  0.17787853  0.49141886  0.77812184    -0.01100
C816        C  0.17633644  0.52007797  0.78523021    -0.01100
C817        C  0.19359662  0.53135887  0.80630159     0.08800
C818        C  0.21067923  0.51303000  0.82171807    -0.01300
Br819      Br  0.23046135  0.52698632  0.85396011     0.00200
Br820      Br  0.22930875  0.45926973  0.84146245     0.00100
Br821      Br  0.14693000  0.54224475  0.76940923     0.00100
Br822      Br  0.15416972  0.47690586  0.74886386     0.00100
C823        C  0.23617830  0.42702448  0.74235644    -0.01000
C824        C  0.22978019  0.42008039  0.77049391     0.08700
C825        C  0.25134033  0.41029064  0.78786689    -0.01100
C826        C  0.27943039  0.41257878  0.77905822    -0.01100
C827        C  0.28611698  0.42086990  0.75125616     0.08800
C828        C  0.26424054  0.42681723  0.73259234    -0.01300
Br829      Br  0.27301383  0.43472342  0.69385795     0.00200
Br830      Br  0.20634808  0.43471362  0.71685803     0.00100
Br831      Br  0.30832021  0.40922196  0.80684283     0.00100
Br832      Br  0.24261478  0.39220231  0.82319045     0.00100
C833        C  0.24738750  0.69310770  0.41219542    -0.01000
C834        C  0.27162698  0.70899488  0.41749922     0.08700
C835        C  0.26928600  0.73792024  0.42296173    -0.01100
C836        C  0.24258014  0.75018934  0.42562878    -0.01100
C837        C  0.21838151  0.73319442  0.42437557     0.08800
C838        C  0.22099603  0.70437324  0.41793015    -0.01300
Br839      Br  0.18924570  0.67909987  0.42055320     0.00200
Br840      Br  0.25019720  0.65680597  0.39477294     0.00100
Br841      Br  0.23881210  0.78990905  0.43126132     0.00100
Br842      Br  0.30248194  0.76079909  0.42470180     0.00100
C843        C  0.28241334  0.66436244  0.48240742    -0.01000
C844        C  0.30143385  0.68390239  0.47031197     0.08700
C845        C  0.31704373  0.70137071  0.48827452    -0.01100
C846        C  0.31376186  0.69920221  0.51771088    -0.01100
C847        C  0.29332674  0.68103278  0.52974057     0.08800
C848        C  0.27748895  0.66382827  0.51167797    -0.01300
Br849      Br  0.25114414  0.63691118  0.52732172     0.00200
Br850      Br  0.26651436  0.63501826  0.45993408     0.00100
Br851      Br  0.34060961  0.71780496  0.54104843     0.00100
Br852      Br  0.34596224  0.72555826  0.47271346     0.00100
C853        C  0.21583322  0.75076232  0.49383020    -0.01000
C854        C  0.19205234  0.76148486  0.48027569     0.08700
C855        C  0.18051228  0.78684509  0.49039836    -0.01100
C856        C  0.19061855  0.79903493  0.51518429    -0.01100
C857        C  0.21626254  0.79005400  0.52679698     0.08800
C858        C  0.22980217  0.76696406  0.51415905    -0.01300
Br859      Br  0.26888435  0.76002594  0.51996345     0.00200
Br860      Br  0.22743372  0.71273241  0.48804470     0.00100
Br861      Br  0.16767341  0.82690555  0.53354441     0.00100
Br862      Br  0.15201821  0.80668760  0.46981376     0.00100
C863        C  0.27195985  0.76292606  0.58833174    -0.01000
C864        C  0.24312841  0.76615459  0.58279959     0.08700
C865        C  0.22603074  0.74216502  0.57978427    -0.01100
C866        C  0.23825471  0.71532473  0.57912721    -0.01100
C867        C  0.26728906  0.71244465  0.58313753     0.08800
C868        C  0.28328297  0.73605999  0.59078647    -0.01300
Br869      Br  0.31981160  0.73170157  0.60702803     0.00200
Br870      Br  0.29733477  0.79467112  0.58757013     0.00100
Br871      Br  0.21523375  0.68245746  0.57467930     0.00100
Br872      Br  0.18616665  0.74642758  0.57643527     0.00100
C873        C  0.26800966  0.73748039  0.07871864    -0.01000
C874        C  0.26637227  0.76572089  0.08663609     0.08700
C875        C  0.24095389  0.77611893  0.09751768    -0.01100
C876        C  0.21632907  0.75981960  0.09606222    -0.01100
C877        C  0.21762661  0.73152039  0.08738815     0.08800
C878        C  0.24400944  0.72009735  0.08040402    -0.01300
Br879      Br  0.24810831  0.68037710  0.07611533     0.00200
Br880      Br  0.30361359  0.72249320  0.06735747     0.00100
Br881      Br  0.18095885  0.77762537  0.10367713     0.00100
Br882      Br  0.23979005  0.81287112  0.11441615     0.00100
C883        C  0.20404104  0.67757299  0.99012771    -0.01000
C884        C  0.19786582  0.70109819  0.97322134     0.08700
C885        C  0.19070285  0.72650823  0.98657064    -0.01100
C886        C  0.18889070  0.72801104  0.01614817    -0.01100
C887        C  0.19214107  0.70370232  0.03275983     0.08800
C888        C  0.19942482  0.67831237  0.01935098    -0.01300
Br889      Br  0.19899916  0.64325694  0.03996671     0.00200
Br890      Br  0.21649896  0.64315031  0.97288191     0.00100
Br891      Br  0.17710588  0.76246695  0.03325194     0.00100
Br892      Br  0.17898609  0.75835299  0.96506708     0.00100
C893        C  0.31555678  0.79189429  0.98501878    -0.01000
C894        C  0.29043286  0.80070095  0.97224901     0.08700
C895        C  0.26691492  0.80583592  0.98964422    -0.01100
C896        C  0.26884473  0.80354822  0.01918931    -0.01100
C897        C  0.29379475  0.79430395  0.03182688     0.08800
C898        C  0.31661846  0.78712175  0.01422483    -0.01300
Br899      Br  0.35070084  0.77302302  0.03047769     0.00200
Br900      Br  0.35014638  0.79054864  0.96359468     0.00100
Br901      Br  0.23863625  0.81752879  0.04188837     0.00100
Br902      Br  0.23341316  0.82094031  0.97368243     0.00100
C903        C  0.27193891  0.74882686  0.92352467    -0.01000
C904        C  0.26080131  0.77566450  0.91805477     0.08700
C905        C  0.23241898  0.77774819  0.91019144    -0.01100
C906        C  0.21574242  0.75341217  0.90810859    -0.01100
C907        C  0.22591345  0.72750947  0.91782380     0.08800
C908        C  0.25423266  0.72505507  0.92469851    -0.01300
Br909      Br  0.26872928  0.68865269  0.93383694     0.00200
Br910      Br  0.31157205  0.74385572  0.92643107     0.00100
Br911      Br  0.17867149  0.75562613  0.89239533     0.00100
Br912      Br  0.21515980  0.81371513  0.90447723     0.00100
C913        C  0.07048941  0.73758892  0.23618254    -0.01000
C914        C  0.07801193  0.70920419  0.23353831     0.08700
C915        C  0.08627276  0.69417675  0.25735176    -0.01100
C916        C  0.08098662  0.70504259  0.28401694    -0.01100
C917        C  0.07295804  0.73336715  0.28705249     0.08800
C918        C  0.06909997  0.75002180  0.26297048    -0.01300
Br919      Br  0.06180887  0.78942825  0.26692914     0.00200
Br920      Br  0.06388584  0.75955780  0.20313943     0.00100
Br921      Br  0.08049031  0.67951228  0.31556392     0.00100
Br922      Br  0.10757461  0.66025030  0.25345966     0.00100
C923        C  0.98076643  0.76108575  0.28093153    -0.01000
C924        C  0.96673672  0.78296248  0.29512193     0.08700
C925        C  0.97922720  0.79369536  0.31974171    -0.01100
C926        C  0.00603906  0.78485339  0.32773826    -0.01100
C927        C  0.01772179  0.76015773  0.31616529     0.08800
C928        C  0.00339561  0.74731034  0.29375712    -0.01300
Br929      Br  0.01070051  0.70924676  0.28316771     0.00200
Br930      Br  0.97332779  0.75275136  0.24233315     0.00100
Br931      Br  0.02696988  0.80859267  0.35301579     0.00100
Br932      Br  0.95938060  0.81887603  0.34455512     0.00100
C933        C  0.00487228  0.69211707  0.19673195    -0.01000
C934        C  0.02583524  0.67695609  0.21059149     0.08700
C935        C  0.01778932  0.65656633  0.23073992    -0.01100
C936        C  0.98937579  0.65301428  0.23847647    -0.01100
C937        C  0.96828771  0.66786372  0.22426383     0.08800
C938        C  0.97635069  0.68656205  0.20252372    -0.01300
Br939      Br  0.94925253  0.69984266  0.17630393     0.00200
Br940      Br  0.01510006  0.71742310  0.16649404     0.00100
Br941      Br  0.97918059  0.62502634  0.26630227     0.00100
Br942      Br  0.04456837  0.63007668  0.24443616     0.00100
C943        C  0.90323622  0.72014196  0.23313222    -0.01000
C944        C  0.91405798  0.69801403  0.24928541     0.08700
C945        C  0.92093513  0.70292033  0.27752637    -0.01100
C946        C  0.91864896  0.73011535  0.28886577    -0.01100
C947        C  0.91194102  0.75288292  0.27130805     0.08800
C948        C  0.90477901  0.74770759  0.24309548    -0.01300
Br949      Br  0.90263095  0.77796961  0.21621773     0.00200
Br950      Br  0.88444815  0.71308199  0.19823243     0.00100
Br951      Br  0.92474309  0.73638619  0.32819391     0.00100
Br952      Br  0.93183795  0.67208422  0.30091355     0.00100
C953        C  0.56914789  0.72952812  0.27348336    -0.01000
C954        C  0.57446845  0.70400086  0.25957605     0.08700
C955        C  0.58242504  0.70470708  0.23095682    -0.01100
C956        C  0.58440335  0.73049535  0.21657828    -0.01100
C957        C  0.57554621  0.75540099  0.22968623     0.08800
C958        C  0.56874306  0.75498472  0.25837326    -0.01300
Br959      Br  0.56110119  0.78972053  0.27718112     0.00200
Br960      Br  0.56538454  0.73025937  0.31351824     0.00100
Br961      Br  0.60035893  0.73183015  0.17920876     0.00100
Br962      Br  0.58943491  0.67053033  0.21067592     0.00100
C963        C  0.47855815  0.69062183  0.31307028    -0.01000
C964        C  0.46086604  0.68681361  0.28983147     0.08700
C965        C  0.47301853  0.67980233  0.26363334    -0.01100
C966        C  0.50224976  0.67604891  0.26106592    -0.01100
C967        C  0.51929956  0.67698206  0.28501131     0.08800
C968        C  0.50701829  0.68355516  0.31122042    -0.01300
Br969      Br  0.52753934  0.67837862  0.34561073     0.00200
Br970      Br  0.46313916  0.70281541  0.34860828     0.00100
Br971      Br  0.51800472  0.66493226  0.22551579     0.00100
Br972      Br  0.45015084  0.67139032  0.23185598     0.00100
C973        C  0.47877163  0.76580630  0.18920640    -0.01000
C974        C  0.46291359  0.78852948  0.19946355     0.08700
C975        C  0.47735826  0.81116104  0.21215536    -0.01100
C976        C  0.50659331  0.81007064  0.21622954    -0.01100
C977        C  0.52257988  0.78787068  0.20500070     0.08800
C978        C  0.50832739  0.76572819  0.19147140    -0.01300
Br979      Br  0.52911953  0.73731215  0.17208667     0.00200
Br980      Br  0.46089724  0.73742695  0.16691003     0.00100
Br981      Br  0.52523998  0.84088502  0.23481982     0.00100
Br982      Br  0.45846930  0.84607234  0.21965201     0.00100
C983        C  0.41441011  0.74903793  0.27403018    -0.01000
C984        C  0.40721374  0.72083609  0.27007099     0.08700
C985        C  0.39730488  0.71198752  0.24383938    -0.01100
C986        C  0.40035849  0.72965359  0.22031030    -0.01100
C987        C  0.40838837  0.75802692  0.22392786     0.08800
C988        C  0.41304689  0.76795690  0.25138977    -0.01300
Br989      Br  0.41359105  0.80739753  0.25886782     0.00200
Br990      Br  0.42459930  0.76160102  0.31084111     0.00100
Br991      Br  0.39533946  0.71375422  0.18361835     0.00100
Br992      Br  0.37892873  0.67591717  0.24043552     0.00100
C993        C  0.71917673  0.55692955  0.24594059    -0.01000
C994        C  0.71495069  0.56250903  0.27465493     0.08700
C995        C  0.73781000  0.57067386  0.29109209    -0.01100
C996        C  0.76508107  0.56699231  0.28091827    -0.01100
C997        C  0.76966413  0.55969661  0.25249171     0.08800
C998        C  0.74661284  0.55617316  0.23468765    -0.01300
Br999      Br  0.75298787  0.54998065  0.19533643     0.00200
Br1000     Br  0.68743040  0.55272475  0.22192937     0.00100
Br1001     Br  0.79542342  0.56808623  0.30737806     0.00100
Br1002     Br  0.73190093  0.58936520  0.32641886     0.00100
C1003       C  0.67519375  0.48791814  0.28342109    -0.01000
C1004       C  0.68802709  0.50786527  0.30099720     0.08700
C1005       C  0.70581301  0.49837356  0.32245462    -0.01100
C1006       C  0.71133266  0.46954612  0.32574238    -0.01100
C1007       C  0.69797679  0.44951943  0.30865229     0.08800
C1008       C  0.67967891  0.45895757  0.28756926    -0.01300
Br1009     Br  0.65745201  0.43259803  0.26683518     0.00200
Br1010     Br  0.64803254  0.50001294  0.25630026     0.00100
Br1011     Br  0.73420619  0.45721407  0.35655671     0.00100
Br1012     Br  0.71952947  0.52397455  0.35021994     0.00100
C1013       C  0.76647569  0.46563954  0.22523776    -0.01000
C1014       C  0.78346735  0.45156039  0.20548388     0.08700
C1015       C  0.80902406  0.46458362  0.19711298    -0.01100
C1016       C  0.81568945  0.49184259  0.20624845    -0.01100
C1017       C  0.80079654  0.50394047  0.22900265     0.08800
C1018       C  0.77699160  0.48932113  0.23950738    -0.01300
Br1019     Br  0.76140546  0.49746045  0.27574045     0.00200
Br1020     Br  0.72755933  0.45612163  0.23003725     0.00100
Br1021     Br  0.84444560  0.51256166  0.18581581     0.00100
Br1022     Br  0.83664528  0.44490773  0.17482298     0.00100
C1023       C  0.72959694  0.38744723  0.23602626    -0.01000
C1024       C  0.75805458  0.39584293  0.23419885     0.08700
C1025       C  0.77266612  0.40211716  0.25890724    -0.01100
C1026       C  0.75822151  0.40267549  0.28488053    -0.01100
C1027       C  0.72955141  0.39546249  0.28629947     0.08800
C1028       C  0.71628561  0.38507639  0.26225185    -0.01300
Br1029     Br  0.68070192  0.36577876  0.26538296     0.00200
Br1030     Br  0.70701236  0.38411490  0.20286233     0.00100
Br1031     Br  0.77791331  0.41143906  0.31863507     0.00100
Br1032     Br  0.81221761  0.41004419  0.25680158     0.00100
C1033       C  0.73032303  0.06797869  0.28880666    -0.01000
C1034       C  0.75950360  0.06562480  0.28474375     0.08700
C1035       C  0.77031125  0.06524608  0.25715932    -0.01100
C1036       C  0.75229940  0.06170582  0.23424826    -0.01100
C1037       C  0.72313375  0.06198298  0.23846460     0.08800
C1038       C  0.71243659  0.06789327  0.26549436    -0.01300
Br1039     Br  0.67412255  0.07958954  0.27003126     0.00200
Br1040     Br  0.71462531  0.07208326  0.32589017     0.00100
Br1041     Br  0.76751640  0.05859883  0.19693711     0.00100
Br1042     Br  0.80892849  0.07470889  0.25055000     0.00100
C1043       C  0.67806180  0.96357056  0.22917143    -0.01000
C1044       C  0.69084097  0.94936917  0.20657305     0.08700
C1045       C  0.70419956  0.96531314  0.18517202    -0.01100
C1046       C  0.70620600  0.99475708  0.18723906    -0.01100
C1047       C  0.69337790  0.00895446  0.20984085     0.08800
C1048       C  0.67893295  0.99312921  0.23054394    -0.01300
Br1049     Br  0.65622607  0.01170994  0.25820915     0.00200
Br1050     Br  0.65445168  0.94312038  0.25529854     0.00100
Br1051     Br  0.72276463  0.01596072  0.15654596     0.00100
Br1052     Br  0.71540360  0.94782572  0.15049683     0.00100
C1053       C  0.77323129  0.96256796  0.30583976    -0.01000
C1054       C  0.79547804  0.95264160  0.28885299     0.08700
C1055       C  0.81445296  0.97249416  0.27721080    -0.01100
C1056       C  0.81362062  0.00080181  0.28562204    -0.01100
C1057       C  0.79086345  0.01086022  0.30175862     0.08800
C1058       C  0.77004050  0.99160092  0.31077685    -0.01300
Br1059     Br  0.73964074  0.00424581  0.33427501     0.00200
Br1060     Br  0.75002006  0.93698338  0.32694333     0.00100
Br1061     Br  0.84668588  0.02370166  0.27979325     0.00100
Br1062     Br  0.84403855  0.96019738  0.25235143     0.00100
C1063       C  0.77058622  0.90032977  0.23154286    -0.01000
C1064       C  0.77029659  0.89716139  0.26079697     0.08700
C1065       C  0.74542235  0.88823496  0.27431599    -0.01100
C1066       C  0.71977228  0.88982559  0.26018075    -0.01100
C1067       C  0.71964729  0.89533379  0.23106976     0.08800
C1068       C  0.74551087  0.89739073  0.21658757    -0.01300
Br1069     Br  0.74706149  0.89096694  0.17689319     0.00200
Br1070     Br  0.80566504  0.90595699  0.21204705     0.00100
Br1071     Br  0.68557091  0.88401264  0.28107555     0.00100
Br1072     Br  0.74719456  0.86946367  0.31016269     0.00100
C1073       C  0.71785317  0.22739898  0.08886374    -0.01000
C1074       C  0.72980634  0.20181271  0.09760695     0.08700
C1075       C  0.75771190  0.20208766  0.10745241    -0.01100
C1076       C  0.77267756  0.22756270  0.10888839    -0.01100
C1077       C  0.76216336  0.25171659  0.09571034     0.08800
C1078       C  0.73453052  0.25176567  0.08617947    -0.01300
Br1079     Br  0.71941858  0.28578981  0.07094175     0.00200
Br1080     Br  0.67824148  0.23016203  0.08353183     0.00100
Br1081     Br  0.80805348  0.22919275  0.12823931     0.00100
Br1082     Br  0.77745802  0.16805889  0.11599970     0.00100
C1083       C  0.80042482  0.29333153  0.99353862    -0.01000
C1084       C  0.80994323  0.26712055  0.98378656     0.08700
C1085       C  0.81140018  0.24447431  0.00277677    -0.01100
C1086       C  0.80513763  0.24846292  0.03148726    -0.01100
C1087       C  0.79491352  0.27453307  0.04109891     0.08800
C1088       C  0.79061453  0.29614793  0.02126593    -0.01300
Br1089     Br  0.77376147  0.33106744  0.03277093     0.00200
Br1090     Br  0.80536731  0.32687084  0.97096054     0.00100
Br1091     Br  0.81514498  0.21933244  0.05723052     0.00100
Br1092     Br  0.82712296  0.20941324  0.99061754     0.00100
C1093       C  0.68239738  0.18397368  0.99940442    -0.01000
C1094       C  0.70708434  0.17737661  0.98429157     0.08700
C1095       C  0.73112636  0.16973743  0.99945517    -0.01100
C1096       C  0.73021443  0.16801281  0.02905408    -0.01100
C1097       C  0.70488986  0.17233548  0.04390170     0.08800
C1098       C  0.68074102  0.17964201  0.02861734    -0.01300
Br1099     Br  0.64416507  0.17981942  0.04651343     0.00200
Br1100     Br  0.64975462  0.19701755  0.97967904     0.00100
Br1101     Br  0.76255396  0.15451406  0.04840021     0.00100
Br1102     Br  0.76442639  0.15771765  0.98027022     0.00100
C1103       C  0.73778676  0.23310677  0.93603004    -0.01000
C1104       C  0.73840348  0.20431714  0.93033044     0.08700
C1105       C  0.76381387  0.19199847  0.92171682    -0.01100
C1106       C  0.78914848  0.20712794  0.92382164    -0.01100
C1107       C  0.78877752  0.23613289  0.92985877     0.08800
C1108       C  0.76258616  0.24927107  0.93383828    -0.01300
Br1109     Br  0.75985642  0.28929135  0.93238409     0.00200
Br1110     Br  0.70267348  0.25022494  0.94569020     0.00100
Br1111     Br  0.82391299  0.18703081  0.92092348     0.00100
Br1112     Br  0.76394140  0.15410753  0.90750768     0.00100
C1113       C  0.73687187  0.22933065  0.59279571    -0.01000
C1114       C  0.74041144  0.25744968  0.60055385     0.08700
C1115       C  0.76711539  0.26704289  0.60862349    -0.01100
C1116       C  0.79082191  0.25022942  0.60397378    -0.01100
C1117       C  0.78756985  0.22183137  0.59596739     0.08800
C1118       C  0.76008129  0.21120873  0.59214280    -0.01300
Br1119     Br  0.75330614  0.17171349  0.58943554     0.00200
Br1120     Br  0.69977263  0.21551697  0.58508566     0.00100
Br1121     Br  0.82739250  0.26746367  0.60610219     0.00100
Br1122     Br  0.77117271  0.30318448  0.62632554     0.00100
C1123       C  0.73801249  0.29338720  0.53332740    -0.01000
C1124       C  0.71286735  0.28541942  0.54717541     0.08700
C1125       C  0.68953451  0.27768639  0.53083530    -0.01100
C1126       C  0.69055361  0.28042479  0.50141467    -0.01100
C1127       C  0.71601095  0.28739263  0.48743263     0.08800
C1128       C  0.73987824  0.29323202  0.50371425    -0.01300
Br1129     Br  0.77395303  0.30600579  0.48574046     0.00200
Br1130     Br  0.76843586  0.30944885  0.55407413     0.00100
Br1131     Br  0.65559981  0.27950466  0.48120652     0.00100
Br1132     Br  0.65487269  0.26589176  0.54886953     0.00100
C1133       C  0.81486201  0.20799613  0.49321310    -0.01000
C1134       C  0.80306745  0.18312413  0.48225205     0.08700
C1135       C  0.79394020  0.16191439  0.50106246    -0.01100
C1136       C  0.79902194  0.16440138  0.52996705    -0.01100
C1137       C  0.80948065  0.18985820  0.54112184     0.08800
C1138       C  0.81674114  0.21186443  0.52248566    -0.01300
Br1139     Br  0.83441402  0.24535388  0.53661258     0.00200
Br1140     Br  0.83341567  0.23460011  0.46885352     0.00100
Br1141     Br  0.79686890  0.13078781  0.55284455     0.00100
Br1142     Br  0.77741336  0.12765257  0.48692928     0.00100
C1143       C  0.72936388  0.23208632  0.43891984    -0.01000
C1144       C  0.74200399  0.25833873  0.43259365     0.08700
C1145       C  0.77003592  0.25884760  0.42265454    -0.01100
C1146       C  0.78467662  0.23360736  0.41888580    -0.01100
C1147       C  0.77324083  0.20816622  0.42905045     0.08800
C1148       C  0.74532071  0.20732861  0.43842514    -0.01300
Br1149     Br  0.72865467  0.17175673  0.44845759     0.00200
Br1150     Br  0.68979819  0.22921652  0.44534117     0.00100
Br1151     Br  0.81990790  0.23362231  0.39864341     0.00100
Br1152     Br  0.78953951  0.29382300  0.41588729     0.00100
loop_ 
_geom_bond_atom_site_label_1 
_geom_bond_atom_site_label_2 
_geom_bond_distance 
_geom_bond_site_symmetry_2 
_ccdc_geom_bond_type 
N1            C5   1.359       .  A
N1            C2   1.362       .  A
N1         C1147   1.442       .  S
C2            C3   1.384       .  A
C2         C1134   1.492       .  S
C3            C4   1.374       .  A
C3            H6   1.082       .  S
C4            C5   1.379       .  A
C4            H7   1.082       .  S
C5          C139   1.472       .  S
N8           C12   1.365       .  A
N8            C9   1.369       .  A
N8         C1144   1.451       .  S
C9           C10   1.383       .  A
C9         C1127   1.493       .  S
C10          C11   1.370       .  A
C10          H13   1.082       .  S
C11          C12   1.378       .  A
C11          H14   1.083       .  S
C12         C109   1.474       .  S
N15          C19   1.359       .  A
N15          C16   1.363       .  A
N15        C1114   1.443       .  S
C16          C17   1.385       .  A
C16        C1124   1.496       .  S
C17          C18   1.375       .  A
C17          H20   1.082       .  S
C18          C19   1.379       .  A
C18          H21   1.082       .  S
C19         C488   1.471       .  S
N22          C26   1.365       .  A
N22          C23   1.368       .  A
N22        C1117   1.455       .  S
C23          C24   1.382       .  A
C23        C1137   1.488       .  S
C24          C25   1.368       .  A
C24          H27   1.082       .  S
C25          C26   1.377       .  A
C25          H28   1.082       .  S
C26         C459   1.469       .  S
N29          C33   1.358       .  A
N29          C30   1.364       .  A
N29        C1104   1.441       .  S
C30          C31   1.386       .  A
C30        C1094   1.497       .  S
C31          C32   1.374       .  A
C31          H34   1.082       .  S
C32          C33   1.378       .  A
C32          H35   1.082       .  S
C33         C473   1.473       .  S
N36          C40   1.363       .  A
N36          C37   1.364       .  A
N36        C1107   1.451       .  S
C37          C38   1.382       .  A
C37        C1084   1.487       .  S
C38          C39   1.372       .  A
C38          H41   1.082       .  S
C39          C40   1.379       .  A
C39          H42   1.082       .  S
C40         C501   1.470       .  S
N43          C47   1.364       .  A
N43          C44   1.367       .  A
N43        C1074   1.449       .  S
C44          C45   1.383       .  A
C44        C1097   1.496       .  S
C45          C46   1.373       .  A
C45          H48   1.082       .  S
C46          C47   1.379       .  A
C46          H49   1.083       .  S
C47         C123   1.473       .  S
N50          C54   1.357       .  A
N50          C51   1.364       .  A
N50        C1077   1.438       .  S
C51          C52   1.385       .  A
C51        C1087   1.495       .  S
C52          C53   1.371       .  A
C52          H55   1.082       .  S
C53          C54   1.379       .  A
C53          H56   1.082       .  S
C54          C98   1.470       .  S
N57          C61   1.358       .  A
N57          C58   1.366       .  A
N57        C1064   1.437       .  S
C58          C59   1.384       .  A
C58        C1054   1.498       .  S
C59          C60   1.374       .  A
C59          H62   1.082       .  S
C60          C61   1.379       .  A
C60          H63   1.082       .  S
C61         C221   1.474       .  S
N64          C68   1.358       .  A
N64          C65   1.364       .  A
N64        C1067   1.444       .  S
C65          C66   1.382       .  A
C65        C1044   1.490       .  S
C66          C67   1.374       .  A
C66          H69   1.082       .  S
C67          C68   1.380       .  A
C67          H70   1.082       .  S
C68         C179   1.470       .  S
N71          C75   1.364       .  A
N71          C72   1.364       .  A
N71        C1034   1.446       .  S
C72          C73   1.382       .  A
C72        C1057   1.495       .  S
C73          C74   1.375       .  A
C73          H76   1.082       .  S
C74          C75   1.380       .  A
C74          H77   1.082       .  S
C75         C137   1.477       .  S
N78          C82   1.354       .  A
N78          C79   1.362       .  A
N78        C1037   1.442       .  S
C79          C80   1.384       .  A
C79        C1047   1.488       .  S
C80          C81   1.374       .  A
C80          H83   1.082       .  S
C81          C82   1.379       .  A
C81          H84   1.082       .  S
C82         C126   1.468       .  S
O85          V93   1.885       .  S
O85          C95   1.258       .  A
O86          V93   1.872       .  S
O86          C96   1.257       .  A
O87          V93   1.925       .  S
O87          C97   1.270       .  A
O88          V93   1.922       .  S
O88          C98   1.269       .  A
O89          V94   1.880       .  S
O89          C98   1.258       .  A
O90          V94   1.882       .  S
O90          C97   1.259       .  A
O91          V94   1.926       .  S
O91          C96   1.270       .  A
O92          V94   1.922       .  S
O92          C95   1.269       .  A
V93          V94   2.086       .  T
C95         C145   1.475       .  S
C96         C125   1.464       .  S
C97         C110   1.470       .  S
O99         V107   1.908       .  S
O99         C109   1.265       .  A
O100        V107   1.919       .  S
O100        C110   1.267       .  A
O101        V107   1.892       .  S
O101        C111   1.263       .  A
O102        V107   1.889       .  S
O102        C112   1.261       .  A
O103        V108   1.911       .  S
O103        C112   1.265       .  A
O104        V108   1.907       .  S
O104        C111   1.265       .  A
O105        V108   1.889       .  S
O105        C110   1.263       .  A
O106        V108   1.899       .  S
O106        C109   1.262       .  A
V107        V108   2.087       .  T
C111        C138   1.464       .  S
C112        C152   1.468       .  S
O113        V121   1.914       .  S
O113        C123   1.266       .  A
O114        V121   1.914       .  S
O114        C124   1.267       .  A
O115        V121   1.882       .  S
O115        C125   1.262       .  A
O116        V121   1.888       .  S
O116        C126   1.259       .  A
O117        V122   1.911       .  S
O117        C126   1.267       .  A
O118        V122   1.916       .  S
O118        C125   1.266       .  A
O119        V122   1.880       .  S
O119        C124   1.259       .  A
O120        V122   1.887       .  S
O120        C123   1.259       .  A
V121        V122   2.086       .  T
C124        C140   1.458       .  S
O127        V135   1.904       .  S
O127        C137   1.264       .  A
O128        V135   1.907       .  S
O128        C138   1.265       .  A
O129        V135   1.895       .  S
O129        C139   1.262       .  A
O130        V135   1.887       .  S
O130        C140   1.262       .  A
O131        V136   1.905       .  S
O131        C140   1.263       .  A
O132        V136   1.914       .  S
O132        C139   1.266       .  A
O133        V136   1.893       .  S
O133        C138   1.263       .  A
O134        V136   1.909       .  S
O134        C137   1.265       .  A
V135        V136   2.088       .  T
N141        C145   1.360       .  A
N141        C142   1.366       .  A
N141       C1024   1.442       .  S
C142        C143   1.387       .  A
C142       C1014   1.504       .  S
C143        C144   1.375       .  A
C143        H146   1.082       .  S
C144        C145   1.377       .  A
C144        H147   1.082       .  S
N148        C152   1.357       .  A
N148        C149   1.364       .  A
N148       C1027   1.441       .  S
C149        C150   1.382       .  A
C149       C1007   1.490       .  S
C150        C151   1.372       .  A
C150        H153   1.082       .  S
C151        C152   1.380       .  A
C151        H154   1.082       .  S
N155        C159   1.357       .  A
N155        C156   1.366       .  A
N155        C997   1.439       .  S
C156        C157   1.388       .  A
C156       C1017   1.506       .  S
C157        C158   1.374       .  A
C157        H160   1.082       .  S
C158        C159   1.377       .  A
C158        H161   1.082       .  S
C159        C195   1.475       .  S
N162        C166   1.354       .  A
N162        C163   1.362       .  A
N162        C994   1.438       .  S
C163        C164   1.383       .  A
C163       C1004   1.491       .  S
C164        C165   1.377       .  A
C164        H167   1.082       .  S
C165        C166   1.380       .  A
C165        H168   1.082       .  S
C166        C208   1.468       .  S
O169        V177   1.900       .  S
O169        C179   1.262       .  A
O170        V177   1.901       .  S
O170        C180   1.264       .  A
O171        V177   1.902       .  S
O171        C181   1.264       .  A
O172        V177   1.900       .  S
O172        C182   1.266       .  A
O173        V178   1.911       .  S
O173        C182   1.265       .  A
O174        V178   1.916       .  S
O174        C181   1.266       .  A
O175        V178   1.896       .  S
O175        C180   1.263       .  A
O176        V178   1.902       .  S
O176        C179   1.263       .  A
V177        V178   2.088       .  T
C180        C207   1.462       .  S
C181        C250   1.478       .  S
C182        C223   1.473       .  S
O183        V191   1.909       .  S
O183        C193   1.265       .  A
O184        V191   1.915       .  S
O184        C194   1.267       .  A
O185        V191   1.896       .  S
O185        C195   1.262       .  A
O186        V191   1.890       .  S
O186        C196   1.263       .  A
O187        V192   1.922       .  S
O187        C196   1.268       .  A
O188        V192   1.911       .  S
O188        C195   1.266       .  A
O189        V192   1.894       .  S
O189        C194   1.263       .  A
O190        V192   1.888       .  S
O190        C193   1.261       .  A
V191        V192   2.086       .  T
C193        C257   1.465       .  S
C194        C210   1.472       .  S
C196        C222   1.473       .  S
O197        V205   1.899       .  S
O197        C207   1.263       .  A
O198        V205   1.903       .  S
O198        C208   1.263       .  A
O199        V205   1.899       .  S
O199        C209   1.263       .  A
O200        V205   1.895       .  S
O200        C210   1.263       .  A
O201        V206   1.915       .  S
O201        C210   1.267       .  A
O202        V206   1.904       .  S
O202        C209   1.264       .  A
O203        V206   1.898       .  S
O203        C208   1.263       .  A
O204        V206   1.898       .  S
O204        C207   1.264       .  A
V205        V206   2.087       .  T
C209        C243   1.470       .  S
O211        V219   1.925       .  S
O211        C221   1.270       .  A
O212        V219   1.926       .  S
O212        C222   1.270       .  A
O213        V219   1.888       .  S
O213        C223   1.260       .  A
O214        V219   1.894       .  S
O214        C224   1.261       .  A
O215        V220   1.924       .  S
O215        C224   1.269       .  A
O216        V220   1.924       .  S
O216        C223   1.270       .  A
O217        V220   1.884       .  S
O217        C222   1.260       .  A
O218        V220   1.886       .  S
O218        C221   1.259       .  A
V219        V220   2.085       .  T
C224        C264   1.483       .  S
N225        C229   1.364       .  A
N225        C226   1.369       .  A
N225        C987   1.446       .  S
C226        C227   1.384       .  A
C226        C974   1.502       .  S
C227        C228   1.376       .  A
C227        H230   1.082       .  S
C228        C229   1.380       .  A
C228        H231   1.082       .  S
C229        C335   1.481       .  S
N232        C236   1.356       .  A
N232        C233   1.362       .  A
N232        C984   1.436       .  S
C233        C234   1.384       .  A
C233        C964   1.491       .  S
C234        C235   1.371       .  A
C234        H237   1.082       .  S
C235        C236   1.380       .  A
C235        H238   1.082       .  S
C236        C361   1.470       .  S
N239        C243   1.361       .  A
N239        C240   1.363       .  A
N239        C954   1.447       .  S
C240        C241   1.382       .  A
C240        C967   1.487       .  S
C241        C242   1.372       .  A
C241        H244   1.082       .  S
C242        C243   1.379       .  A
C242        H245   1.082       .  S
N246        C250   1.359       .  A
N246        C247   1.366       .  A
N246        C957   1.440       .  S
C247        C248   1.385       .  A
C247        C977   1.500       .  S
C248        C249   1.375       .  A
C248        H251   1.082       .  S
C249        C250   1.379       .  A
C249        H252   1.082       .  S
N253        C257   1.354       .  A
N253        C254   1.365       .  A
N253        C944   1.442       .  S
C254        C255   1.383       .  A
C254        C937   1.490       .  S
C255        C256   1.372       .  A
C255        H258   1.082       .  S
C256        C257   1.379       .  A
C256        H259   1.082       .  S
N260        C264   1.364       .  A
N260        C261   1.368       .  A
N260        C947   1.442       .  S
C261        C262   1.387       .  A
C261        C924   1.508       .  S
C262        C263   1.375       .  A
C262        H265   1.082       .  S
C263        C264   1.378       .  A
C263        H266   1.083       .  S
N267        C271   1.354       .  A
N267        C268   1.361       .  A
N267        C914   1.438       .  S
C268        C269   1.382       .  A
C268        C934   1.488       .  S
C269        C270   1.376       .  A
C269        H272   1.082       .  S
C270        C271   1.381       .  A
C270        H273   1.082       .  S
C271        C322   1.467       .  S
N274        C278   1.358       .  A
N274        C275   1.366       .  A
N274        C917   1.440       .  S
C275        C276   1.389       .  A
C275        C927   1.507       .  S
C276        C277   1.375       .  A
C276        H279   1.082       .  S
C277        C278   1.375       .  A
C277        H280   1.086       .  S
C278        C350   1.477       .  S
N281        C285   1.365       .  A
N281        C282   1.369       .  A
N281        C904   1.447       .  S
C282        C283   1.383       .  A
C282        C894   1.501       .  S
C283        C284   1.374       .  A
C283        H286   1.082       .  S
C284        C285   1.379       .  A
C284        H287   1.082       .  S
C285        C434   1.482       .  S
N288        C292   1.357       .  A
N288        C289   1.364       .  A
N288        C907   1.438       .  S
C289        C290   1.386       .  A
C289        C884   1.498       .  S
C290        C291   1.375       .  A
C290        H293   1.082       .  S
C291        C292   1.378       .  A
C291        H294   1.082       .  S
C292        C420   1.473       .  S
N295        C299   1.359       .  A
N295        C296   1.365       .  A
N295        C874   1.440       .  S
C296        C297   1.386       .  A
C296        C897   1.502       .  S
C297        C298   1.376       .  A
C297        H300   1.082       .  S
C298        C299   1.378       .  A
C298        H301   1.082       .  S
C299        C333   1.477       .  S
N302        C306   1.365       .  A
N302        C303   1.368       .  A
N302        C877   1.449       .  S
C303        C304   1.383       .  A
C303        C887   1.496       .  S
C304        C305   1.372       .  A
C304        H307   1.082       .  S
C305        C306   1.378       .  A
C305        H308   1.082       .  S
C306        C319   1.477       .  S
O309        V317   1.906       .  S
O309        C319   1.265       .  A
O310        V317   1.908       .  S
O310        C320   1.264       .  A
O311        V317   1.907       .  S
O311        C321   1.264       .  A
O312        V317   1.908       .  S
O312        C322   1.265       .  A
O313        V318   1.893       .  S
O313        C322   1.262       .  A
O314        V318   1.891       .  S
O314        C321   1.263       .  A
O315        V318   1.908       .  S
O315        C320   1.267       .  A
O316        V318   1.905       .  S
O316        C319   1.263       .  A
V317        V318   2.086       .  T
C320        C347   1.475       .  S
C321        C336   1.462       .  S
O323        V331   1.905       .  S
O323        C333   1.265       .  A
O324        V331   1.904       .  S
O324        C334   1.266       .  A
O325        V331   1.909       .  S
O325        C335   1.264       .  A
O326        V331   1.909       .  S
O326        C336   1.265       .  A
O327        V332   1.889       .  S
O327        C336   1.262       .  A
O328        V332   1.903       .  S
O328        C335   1.263       .  A
O329        V332   1.903       .  S
O329        C334   1.263       .  A
O330        V332   1.910       .  S
O330        C333   1.265       .  A
V331        V332   2.087       .  T
C334        C363   1.469       .  S
O337        V345   1.915       .  S
O337        C347   1.268       .  A
O338        V345   1.910       .  S
O338        C348   1.266       .  A
O339        V345   1.915       .  S
O339        C349   1.265       .  A
O340        V345   1.910       .  S
O340        C350   1.265       .  A
O341        V346   1.900       .  S
O341        C350   1.263       .  A
O342        V346   1.893       .  S
O342        C349   1.265       .  A
O343        V346   1.896       .  S
O343        C348   1.261       .  A
O344        V346   1.899       .  S
O344        C347   1.263       .  A
V345        V346   2.088       .  T
C348        C390   1.473       .  S
C349        C362   1.471       .  S
O351        V359   1.872       .  S
O351        C361   1.255       .  A
O352        V359   1.881       .  S
O352        C362   1.259       .  A
O353        V359   1.915       .  S
O353        C363   1.269       .  A
O354        V359   1.912       .  S
O354        C364   1.267       .  A
O355        V360   1.899       .  S
O355        C364   1.261       .  A
O356        V360   1.893       .  S
O356        C363   1.260       .  A
O357        V360   1.926       .  S
O357        C362   1.270       .  A
O358        V360   1.930       .  S
O358        C361   1.272       .  A
V359        V360   2.088       .  T
C364        C383   1.473       .  S
N365        C369   1.360       .  A
N365        C366   1.365       .  A
N365        C864   1.440       .  S
C366        C367   1.387       .  A
C366        C857   1.505       .  S
C367        C368   1.377       .  A
C367        H370   1.082       .  S
C368        C369   1.378       .  A
C368        H371   1.082       .  S
C369        C406   1.480       .  S
N372        C376   1.355       .  A
N372        C373   1.366       .  A
N372        C867   1.439       .  S
C373        C374   1.384       .  A
C373        C847   1.497       .  S
C374        C375   1.376       .  A
C374        H377   1.082       .  S
C375        C376   1.379       .  A
C375        H378   1.082       .  S
C376        C445   1.473       .  S
N379        C383   1.357       .  A
N379        C380   1.363       .  A
N379        C834   1.439       .  S
C380        C381   1.384       .  A
C380        C844   1.497       .  S
C381        C382   1.379       .  A
C381        H384   1.082       .  S
C382        C383   1.380       .  A
C382        H385   1.082       .  S
N386        C390   1.356       .  A
N386        C387   1.364       .  A
N386        C837   1.441       .  S
C387        C388   1.388       .  A
C387        C854   1.501       .  S
C388        C389   1.375       .  A
C388        H391   1.082       .  S
C389        C390   1.376       .  A
C389        H392   1.086       .  S
O393        V401   1.897       .  S
O393        C403   1.261       .  A
O394        V401   1.891       .  S
O394        C404   1.262       .  A
O395        V401   1.915       .  S
O395        C405   1.268       .  A
O396        V401   1.917       .  S
O396        C406   1.267       .  A
O397        V402   1.900       .  S
O397        C406   1.262       .  A
O398        V402   1.893       .  S
O398        C405   1.261       .  A
O399        V402   1.918       .  S
O399        C404   1.268       .  A
O400        V402   1.914       .  S
O400        C403   1.267       .  A
V401        V402   2.086       .  T
C403        C537   1.478       .  S
C404        C448   1.472       .  S
C405        C433   1.470       .  S
O407        V415   1.894       .  S
O407        C417   1.262       .  A
O408        V415   1.903       .  S
O408        C418   1.263       .  A
O409        V415   1.909       .  S
O409        C419   1.266       .  A
O410        V415   1.915       .  S
O410        C420   1.267       .  A
O411        V416   1.895       .  S
O411        C420   1.262       .  A
O412        V416   1.907       .  S
O412        C419   1.265       .  A
O413        V416   1.905       .  S
O413        C418   1.265       .  A
O414        V416   1.912       .  S
O414        C417   1.267       .  A
V415        V416   2.088       .  T
C417        C432   1.468       .  S
C418        C530   1.472       .  S
C419        C446   1.476       .  S
O421        V429   1.903       .  S
O421        C431   1.264       .  A
O422        V429   1.899       .  S
O422        C432   1.264       .  A
O423        V429   1.904       .  S
O423        C433   1.266       .  A
O424        V429   1.907       .  S
O424        C434   1.264       .  A
O425        V430   1.909       .  S
O425        C434   1.266       .  A
O426        V430   1.904       .  S
O426        C433   1.263       .  A
O427        V430   1.908       .  S
O427        C432   1.265       .  A
O428        V430   1.914       .  S
O428        C431   1.266       .  A
V429        V430   2.086       .  T
C431        C544   1.478       .  S
O435        V443   1.899       .  S
O435        C445   1.263       .  A
O436        V443   1.904       .  S
O436        C446   1.265       .  A
O437        V443   1.906       .  S
O437        C447   1.265       .  A
O438        V443   1.918       .  S
O438        C448   1.268       .  A
O439        V444   1.892       .  S
O439        C448   1.263       .  A
O440        V444   1.898       .  S
O440        C447   1.263       .  A
O441        V444   1.911       .  S
O441        C446   1.267       .  A
O442        V444   1.909       .  S
O442        C445   1.265       .  A
V443        V444   2.085       .  T
C447        C523   1.470       .  S
O449        V457   1.896       .  S
O449        C459   1.261       .  A
O450        V457   1.896       .  S
O450        C460   1.263       .  A
O451        V457   1.906       .  S
O451        C461   1.265       .  A
O452        V457   1.914       .  S
O452        C462   1.268       .  A
O453        V458   1.919       .  S
O453        C462   1.267       .  A
O454        V458   1.900       .  S
O454        C461   1.264       .  A
O455        V458   1.894       .  S
O455        C460   1.262       .  A
O456        V458   1.902       .  S
O456        C459   1.264       .  A
V457        V458   2.087       .  T
C460        C502   1.460       .  S
C461        C490   1.468       .  S
C462        C572   1.491       .  S
O463        V471   1.910       .  S
O463        C473   1.265       .  A
O464        V471   1.901       .  S
O464        C474   1.263       .  A
O465        V471   1.907       .  S
O465        C475   1.264       .  A
O466        V471   1.900       .  S
O466        C476   1.263       .  A
O467        V472   1.902       .  S
O467        C476   1.265       .  A
O468        V472   1.902       .  S
O468        C475   1.263       .  A
O469        V472   1.899       .  S
O469        C474   1.264       .  A
O470        V472   1.898       .  S
O470        C473   1.263       .  A
V471        V472   2.088       .  T
C474        C487   1.463       .  S
C475        C646   1.477       .  S
C476        C504   1.464       .  S
O477        V485   1.905       .  S
O477        C487   1.265       .  A
O478        V485   1.900       .  S
O478        C488   1.263       .  A
O479        V485   1.898       .  S
O479        C489   1.263       .  A
O480        V485   1.901       .  S
O480        C490   1.264       .  A
O481        V486   1.906       .  S
O481        C490   1.265       .  A
O482        V486   1.920       .  S
O482        C489   1.268       .  A
O483        V486   1.907       .  S
O483        C488   1.265       .  A
O484        V486   1.896       .  S
O484        C487   1.262       .  A
V485        V486   2.089       .  T
C489        C656   1.479       .  S
O491        V499   1.905       .  S
O491        C501   1.265       .  A
O492        V499   1.894       .  S
O492        C502   1.264       .  A
O493        V499   1.918       .  S
O493        C503   1.265       .  A
O494        V499   1.896       .  S
O494        C504   1.262       .  A
O495        V500   1.906       .  S
O495        C504   1.266       .  A
O496        V500   1.910       .  S
O496        C503   1.268       .  A
O497        V500   1.893       .  S
O497        C502   1.261       .  A
O498        V500   1.895       .  S
O498        C501   1.261       .  A
V499        V500   2.087       .  T
C503        C565   1.484       .  S
N505        C509   1.358       .  A
N505        C506   1.368       .  A
N505        C824   1.446       .  S
C506        C507   1.384       .  A
C506        C814   1.493       .  S
C507        C508   1.370       .  A
C507        H510   1.082       .  S
C508        C509   1.378       .  A
C508        H511   1.083       .  S
C509        C613   1.466       .  S
N512        C516   1.364       .  A
N512        C513   1.368       .  A
N512        C827   1.446       .  S
C513        C514   1.386       .  A
C513        C804   1.505       .  S
C514        C515   1.374       .  A
C514        H517   1.082       .  S
C515        C516   1.377       .  A
C515        H518   1.082       .  S
C516        C627   1.480       .  S
N519        C523   1.355       .  A
N519        C520   1.363       .  A
N519        C797   1.440       .  S
C520        C521   1.388       .  A
C520        C807   1.499       .  S
C521        C522   1.374       .  A
C521        H524   1.083       .  S
C522        C523   1.376       .  A
C522        H525   1.082       .  S
N526        C530   1.353       .  A
N526        C527   1.361       .  A
N526        C794   1.437       .  S
C527        C528   1.384       .  A
C527        C817   1.494       .  S
C528        C529   1.381       .  A
C528        H531   1.082       .  S
C529        C530   1.381       .  A
C529        H532   1.082       .  S
N533        C537   1.363       .  A
N533        C534   1.367       .  A
N533        C787   1.446       .  S
C534        C535   1.382       .  A
C534        C774   1.497       .  S
C535        C536   1.374       .  A
C535        H538   1.082       .  S
C536        C537   1.380       .  A
C536        H539   1.082       .  S
N540        C544   1.358       .  A
N540        C541   1.365       .  A
N540        C784   1.437       .  S
C541        C542   1.386       .  A
C541        C767   1.504       .  S
C542        C543   1.377       .  A
C542        H545   1.082       .  S
C543        C544   1.379       .  A
C543        H546   1.082       .  S
N547        C551   1.358       .  A
N547        C548   1.364       .  A
N547        C757   1.439       .  S
C548        C549   1.385       .  A
C548        C777   1.500       .  S
C549        C550   1.375       .  A
C549        H552   1.082       .  S
C550        C551   1.378       .  A
C550        H553   1.082       .  S
C551        C600   1.475       .  S
N554        C558   1.364       .  A
N554        C555   1.368       .  A
N554        C754   1.448       .  S
C555        C556   1.383       .  A
C555        C764   1.498       .  S
C556        C557   1.373       .  A
C556        H559   1.082       .  S
C557        C558   1.379       .  A
C557        H560   1.082       .  S
C558        C643   1.477       .  S
N561        C565   1.371       .  A
N561        C562   1.372       .  A
N561        C744   1.450       .  S
C562        C563   1.387       .  A
C562        C734   1.509       .  S
C563        C564   1.367       .  A
C563        H566   1.082       .  S
C564        C565   1.375       .  A
C564        H567   1.082       .  S
N568        C572   1.383       .  A
N568        C569   1.379       .  A
N568        C747   1.475       .  S
C569        C570   1.380       .  A
C569        C727   1.492       .  S
C570        C571   1.362       .  A
C570        H573   1.083       .  S
C571        C572   1.376       .  A
C571        H574   1.082       .  S
N575        C579   1.368       .  A
N575        C576   1.382       .  A
N575        C714   1.457       .  S
C576        C577   1.388       .  A
C576        C737   1.522       .  S
C577        C578   1.361       .  A
C577        H580   1.080       .  S
C578        C579   1.372       .  A
C578        H581   1.083       .  S
C579        C615   1.476       .  S
N582        C586   1.381       .  A
N582        C583   1.381       .  A
N582        C717   1.475       .  S
C583        C584   1.376       .  A
C583        C724   1.488       .  S
C584        C585   1.357       .  A
C584        H587   1.082       .  S
C585        C586   1.380       .  A
C585        H588   1.083       .  S
C586        C602   1.480       .  S
O589        V597   1.900       .  S
O589        C599   1.264       .  A
O590        V597   1.915       .  S
O590        C600   1.266       .  A
O591        V597   1.892       .  S
O591        C601   1.262       .  A
O592        V597   1.905       .  S
O592        C602   1.260       .  A
O593        V598   1.903       .  S
O593        C602   1.267       .  A
O594        V598   1.909       .  S
O594        C601   1.266       .  A
O595        V598   1.896       .  S
O595        C600   1.262       .  A
O596        V598   1.888       .  S
O596        C599   1.260       .  A
V597        V598   2.085       .  T
C599        C614   1.455       .  S
C601        C642   1.465       .  S
O603        V611   1.905       .  S
O603        C613   1.263       .  A
O604        V611   1.894       .  S
O604        C614   1.263       .  A
O605        V611   1.906       .  S
O605        C615   1.265       .  A
O606        V611   1.895       .  S
O606        C616   1.264       .  A
O607        V612   1.921       .  S
O607        C616   1.268       .  A
O608        V612   1.910       .  S
O608        C615   1.265       .  A
O609        V612   1.893       .  S
O609        C614   1.261       .  A
O610        V612   1.894       .  S
O610        C613   1.263       .  A
V611        V612   2.087       .  T
C616        C630   1.477       .  S
O617        V625   1.894       .  S
O617        C627   1.261       .  A
O618        V625   1.887       .  S
O618        C628   1.259       .  A
O619        V625   1.923       .  S
O619        C629   1.269       .  A
O620        V625   1.925       .  S
O620        C630   1.270       .  A
O621        V626   1.890       .  S
O621        C630   1.262       .  A
O622        V626   1.898       .  S
O622        C629   1.261       .  A
O623        V626   1.920       .  S
O623        C628   1.270       .  A
O624        V626   1.922       .  S
O624        C627   1.269       .  A
V625        V626   2.085       .  T
C628        C644   1.470       .  S
C629        C670   1.486       .  S
O631        V639   1.901       .  S
O631        C641   1.263       .  A
O632        V639   1.895       .  S
O632        C642   1.264       .  A
O633        V639   1.902       .  S
O633        C643   1.262       .  A
O634        V639   1.901       .  S
O634        C644   1.266       .  A
O635        V640   1.907       .  S
O635        C644   1.263       .  A
O636        V640   1.907       .  S
O636        C643   1.265       .  A
O637        V640   1.905       .  S
O637        C642   1.264       .  A
O638        V640   1.909       .  S
O638        C641   1.265       .  A
V639        V640   2.086       .  T
C641        C663   1.473       .  S
N645        C649   1.368       .  A
N645        C646   1.364       .  A
N645        C704   1.448       .  S
C646        C647   1.379       .  A
C647        C648   1.374       .  A
C647        H650   1.082       .  S
C648        C649   1.383       .  A
C648        H651   1.082       .  S
C649        C694   1.497       .  S
N652        C656   1.360       .  A
N652        C653   1.367       .  A
N652        C707   1.438       .  S
C653        C654   1.386       .  A
C653        C687   1.505       .  S
C654        C655   1.375       .  A
C654        H657   1.082       .  S
C655        C656   1.378       .  A
C655        H658   1.082       .  S
N659        C663   1.356       .  A
N659        C660   1.362       .  A
N659        C677   1.439       .  S
C660        C661   1.385       .  A
C660        C697   1.496       .  S
C661        C662   1.376       .  A
C661        H664   1.082       .  S
C662        C663   1.379       .  A
C662        H665   1.082       .  S
N666        C670   1.366       .  A
N666        C667   1.369       .  A
N666        C674   1.446       .  S
C667        C668   1.382       .  A
C667        C684   1.502       .  S
C668        C669   1.375       .  A
C668        H671   1.082       .  S
C669        C670   1.381       .  A
C669        H672   1.082       .  S
C673        C674   1.412       .  A
C673        C678   1.407       .  A
C673       Br680   1.916       .  S
C674        C675   1.412       .  A
C675        C676   1.406       .  A
C675       Br682   1.928       .  S
C676        C677   1.410       .  A
C676       Br681   1.930       .  S
C677        C678   1.402       .  A
C678       Br679   1.922       .  S
C683        C684   1.411       .  A
C683        C688   1.417       .  A
C683       Br690   1.925       .  S
C684        C685   1.417       .  A
C685        C686   1.412       .  A
C685       Br692   1.933       .  S
C686        C687   1.414       .  A
C686       Br691   1.934       .  S
C687        C688   1.415       .  A
C688       Br689   1.916       .  S
C693        C694   1.416       .  A
C693        C698   1.411       .  A
C693       Br700   1.930       .  S
C694        C695   1.412       .  A
C695        C696   1.414       .  A
C695       Br702   1.925       .  S
C696        C697   1.411       .  A
C696       Br701   1.921       .  S
C697        C698   1.413       .  A
C698       Br699   1.934       .  S
C703        C704   1.414       .  A
C703        C708   1.407       .  A
C703       Br710   1.924       .  S
C704        C705   1.413       .  A
C705        C706   1.407       .  A
C705       Br712   1.915       .  S
C706        C707   1.400       .  A
C706       Br711   1.923       .  S
C707        C708   1.408       .  A
C708       Br709   1.931       .  S
C713        C714   1.420       .  A
C713        C718   1.432       .  A
C713       Br720   1.922       .  S
C714        C715   1.410       .  A
C715        C716   1.396       .  A
C715       Br722   1.919       .  S
C716        C717   1.398       .  A
C716       Br721   1.919       .  S
C717        C718   1.420       .  A
C718       Br719   1.920       .  S
C723        C724   1.409       .  A
C723        C728   1.407       .  A
C723       Br730   1.931       .  S
C724        C725   1.414       .  A
C725        C726   1.416       .  A
C725       Br732   1.927       .  S
C726        C727   1.414   1_455  A
C726       Br731   1.927   1_455  S
C727        C728   1.417   1_655  A
C728       Br729   1.936   1_455  S
C733        C734   1.418       .  A
C733        C738   1.417   1_655  A
C733       Br740   1.935       .  S
C734        C735   1.399   1_655  A
C735        C736   1.410       .  A
C735       Br742   1.917   1_455  S
C736        C737   1.404       .  A
C736       Br741   1.916       .  S
C737        C738   1.429       .  A
C738       Br739   1.935       .  S
C743        C744   1.420       .  A
C743        C748   1.430       .  A
C743       Br750   1.930       .  S
C744        C745   1.402       .  A
C745        C746   1.398       .  A
C745       Br752   1.911       .  S
C746        C747   1.397       .  A
C746       Br751   1.921       .  S
C747        C748   1.432       .  A
C748       Br749   1.913       .  S
C753        C754   1.413       .  A
C753        C758   1.407       .  A
C753       Br760   1.915       .  S
C754        C755   1.415       .  A
C755        C756   1.406       .  A
C755       Br762   1.928       .  S
C756        C757   1.408       .  A
C756       Br761   1.932       .  S
C757        C758   1.401       .  A
C758       Br759   1.923       .  S
C763        C764   1.411       .  A
C763        C768   1.415   1_545  A
C763       Br770   1.924       .  S
C764        C765   1.416       .  A
C765        C766   1.411   1_545  A
C765       Br772   1.933       .  S
C766        C767   1.414       .  A
C766       Br771   1.933       .  S
C767        C768   1.415       .  A
C768       Br769   1.917       .  S
C773        C774   1.411       .  A
C773        C778   1.415   1_565  A
C773       Br780   1.925       .  S
C774        C775   1.416       .  A
C775        C776   1.410   1_565  A
C775       Br782   1.932       .  S
C776        C777   1.413       .  A
C776       Br781   1.934       .  S
C777        C778   1.414       .  A
C778       Br779   1.918       .  S
C783        C784   1.400       .  A
C783        C788   1.407       .  A
C783       Br790   1.923       .  S
C784        C785   1.409       .  A
C785        C786   1.406       .  A
C785       Br792   1.932       .  S
C786        C787   1.413       .  A
C786       Br791   1.927       .  S
C787        C788   1.413       .  A
C788       Br789   1.914       .  S
C793        C794   1.408       .  A
C793        C798   1.411       .  A
C793       Br800   1.919       .  S
C794        C795   1.402       .  A
C795        C796   1.397       .  A
C795       Br802   1.927       .  S
C796        C797   1.416       .  A
C796       Br801   1.931       .  S
C797        C798   1.407       .  A
C798       Br799   1.922       .  S
C803        C804   1.419       .  A
C803        C808   1.406       .  A
C803       Br810   1.935       .  S
C804        C805   1.413       .  A
C805        C806   1.411       .  A
C805       Br812   1.920       .  S
C806        C807   1.412       .  A
C806       Br811   1.918       .  S
C807        C808   1.415       .  A
C808       Br809   1.937       .  S
C813        C814   1.414       .  A
C813        C818   1.413       .  A
C813       Br820   1.920       .  S
C814        C815   1.414       .  A
C815        C816   1.411       .  A
C815       Br822   1.932       .  S
C816        C817   1.411       .  A
C816       Br821   1.923       .  S
C817        C818   1.410       .  A
C818       Br819   1.930       .  S
C823        C824   1.410       .  A
C823        C828   1.414       .  A
C823       Br830   1.919       .  S
C824        C825   1.409       .  A
C825        C826   1.404       .  A
C825       Br832   1.929       .  S
C826        C827   1.414       .  A
C826       Br831   1.929       .  S
C827        C828   1.409       .  A
C828       Br829   1.925       .  S
C833        C834   1.403       .  A
C833        C838   1.399       .  A
C833       Br840   1.928       .  S
C834        C835   1.409       .  A
C835        C836   1.412       .  A
C835       Br842   1.918       .  S
C836        C837   1.407       .  A
C836       Br841   1.923       .  S
C837        C838   1.415       .  A
C838       Br839   1.931       .  S
C843        C844   1.412       .  A
C843        C848   1.413       .  A
C843       Br850   1.921       .  S
C844        C845   1.411       .  A
C845        C846   1.414       .  A
C845       Br852   1.931       .  S
C846        C847   1.414       .  A
C846       Br851   1.920       .  S
C847        C848   1.412       .  A
C848       Br849   1.931       .  S
C853        C854   1.411       .  A
C853        C858   1.411       .  A
C853       Br860   1.920       .  S
C854        C855   1.417       .  A
C855        C856   1.407       .  A
C855       Br862   1.937       .  S
C856        C857   1.418       .  A
C856       Br861   1.936       .  S
C857        C858   1.415       .  A
C858       Br859   1.920       .  S
C863        C864   1.414       .  A
C863        C868   1.399       .  A
C863       Br870   1.930       .  S
C864        C865   1.408       .  A
C865        C866   1.411       .  A
C865       Br872   1.924       .  S
C866        C867   1.409       .  A
C866       Br871   1.919       .  S
C867        C868   1.406       .  A
C868       Br869   1.928       .  S
C873        C874   1.402       .  A
C873        C878   1.409       .  A
C873       Br880   1.923       .  S
C874        C875   1.410       .  A
C875        C876   1.406       .  A
C875       Br882   1.932       .  S
C876        C877   1.414       .  A
C876       Br881   1.928       .  S
C877        C878   1.414       .  A
C878       Br879   1.917       .  S
C883        C884   1.413       .  A
C883        C888   1.409   1_556  A
C883       Br890   1.934       .  S
C884        C885   1.414       .  A
C885        C886   1.414   1_556  A
C885       Br892   1.919       .  S
C886        C887   1.411       .  A
C886       Br891   1.923       .  S
C887        C888   1.416       .  A
C888       Br889   1.935       .  S
C893        C894   1.417       .  A
C893        C898   1.412   1_556  A
C893       Br900   1.935       .  S
C894        C895   1.413       .  A
C895        C896   1.417   1_556  A
C895       Br902   1.923       .  S
C896        C897   1.413       .  A
C896       Br901   1.920       .  S
C897        C898   1.414       .  A
C898       Br899   1.934       .  S
C903        C904   1.414       .  A
C903        C908   1.408       .  A
C903       Br910   1.915       .  S
C904        C905   1.414       .  A
C905        C906   1.406       .  A
C905       Br912   1.928       .  S
C906        C907   1.409       .  A
C906       Br911   1.932       .  S
C907        C908   1.400       .  A
C908       Br909   1.924       .  S
C913        C914   1.409       .  A
C913        C918   1.412       .  A
C913       Br920   1.918       .  S
C914        C915   1.402       .  A
C915        C916   1.397       .  A
C915       Br922   1.926       .  S
C916        C917   1.414       .  A
C916       Br921   1.931       .  S
C917        C918   1.408       .  A
C918       Br919   1.923       .  S
C923        C924   1.415       .  A
C923        C928   1.412   1_655  A
C923       Br930   1.921       .  S
C924        C925   1.418       .  A
C925        C926   1.407   1_655  A
C925       Br932   1.936       .  S
C926        C927   1.418       .  A
C926       Br931   1.936       .  S
C927        C928   1.413       .  A
C928       Br929   1.919       .  S
C933        C934   1.408       .  A
C933        C938   1.409   1_455  A
C933       Br940   1.932       .  S
C934        C935   1.412       .  A
C935        C936   1.411   1_455  A
C935       Br942   1.922       .  S
C936        C937   1.413       .  A
C936       Br941   1.933       .  S
C937        C938   1.412       .  A
C938       Br939   1.918       .  S
C943        C944   1.408       .  A
C943        C948   1.401       .  A
C943       Br950   1.928       .  S
C944        C945   1.409       .  A
C945        C946   1.411       .  A
C945       Br952   1.920       .  S
C946        C947   1.409       .  A
C946       Br951   1.925       .  S
C947        C948   1.414       .  A
C948       Br949   1.930       .  S
C953        C954   1.412       .  A
C953        C958   1.409       .  A
C953       Br960   1.916       .  S
C954        C955   1.413       .  A
C955        C956   1.407       .  A
C955       Br962   1.928       .  S
C956        C957   1.410       .  A
C956       Br961   1.931       .  S
C957        C958   1.403       .  A
C958       Br959   1.922       .  S
C963        C964   1.412       .  A
C963        C968   1.405       .  A
C963       Br970   1.934       .  S
C964        C965   1.415       .  A
C965        C966   1.413       .  A
C965       Br972   1.918       .  S
C966        C967   1.410       .  A
C966       Br971   1.926       .  S
C967        C968   1.413       .  A
C968       Br969   1.935       .  S
C973        C974   1.413       .  A
C973        C978   1.416       .  A
C973       Br980   1.923       .  S
C974        C975   1.417       .  A
C975        C976   1.412       .  A
C975       Br982   1.933       .  S
C976        C977   1.414       .  A
C976       Br981   1.934       .  S
C977        C978   1.413       .  A
C978       Br979   1.921       .  S
C983        C984   1.399       .  A
C983        C988   1.406       .  A
C983       Br990   1.923       .  S
C984        C985   1.407       .  A
C985        C986   1.406       .  A
C985       Br992   1.931       .  S
C986        C987   1.414       .  A
C986       Br991   1.926       .  S
C987        C988   1.413       .  A
C988       Br989   1.915       .  S
C993        C994   1.409       .  A
C993        C998   1.411       .  A
C993      Br1000   1.918       .  S
C994        C995   1.403       .  A
C995        C996   1.397       .  A
C995      Br1002   1.928       .  S
C996        C997   1.416       .  A
C996      Br1001   1.931       .  S
C997        C998   1.406       .  A
C998       Br999   1.922       .  S
C1003      C1004   1.410       .  A
C1003      C1008   1.412       .  A
C1003     Br1010   1.931       .  S
C1004      C1005   1.412       .  A
C1005      C1006   1.410       .  A
C1005     Br1012   1.921       .  S
C1006      C1007   1.410       .  A
C1006     Br1011   1.932       .  S
C1007      C1008   1.413       .  A
C1008     Br1009   1.921       .  S
C1013      C1014   1.412       .  A
C1013      C1018   1.412       .  A
C1013     Br1020   1.920       .  S
C1014      C1015   1.417       .  A
C1015      C1016   1.407       .  A
C1015     Br1022   1.936       .  S
C1016      C1017   1.419       .  A
C1016     Br1021   1.936       .  S
C1017      C1018   1.414       .  A
C1018     Br1019   1.917       .  S
C1023      C1024   1.415       .  A
C1023      C1028   1.401       .  A
C1023     Br1030   1.930       .  S
C1024      C1025   1.407       .  A
C1025      C1026   1.412       .  A
C1025     Br1032   1.924       .  S
C1026      C1027   1.409       .  A
C1026     Br1031   1.918       .  S
C1027      C1028   1.406       .  A
C1028     Br1029   1.929       .  S
C1033      C1034   1.410       .  A
C1033      C1038   1.409       .  A
C1033     Br1040   1.925       .  S
C1034      C1035   1.408       .  A
C1035      C1036   1.407       .  A
C1035     Br1042   1.917       .  S
C1036      C1037   1.405       .  A
C1036     Br1041   1.922       .  S
C1037      C1038   1.412       .  A
C1038     Br1039   1.927       .  S
C1043      C1044   1.411       .  A
C1043      C1048   1.411       .  A
C1043     Br1050   1.927       .  S
C1044      C1045   1.413       .  A
C1045      C1046   1.410       .  A
C1045     Br1052   1.928       .  S
C1046      C1047   1.412   1_565  A
C1046     Br1051   1.933   1_565  S
C1047      C1048   1.411   1_545  A
C1048     Br1049   1.923   1_565  S
C1053      C1054   1.415       .  A
C1053      C1058   1.414       .  A
C1053     Br1060   1.916       .  S
C1054      C1055   1.412       .  A
C1055      C1056   1.410   1_565  A
C1055     Br1062   1.931       .  S
C1056      C1057   1.413       .  A
C1056     Br1061   1.928       .  S
C1057      C1058   1.410   1_545  A
C1058     Br1059   1.927   1_565  S
C1063      C1064   1.402       .  A
C1063      C1068   1.406       .  A
C1063     Br1070   1.923       .  S
C1064      C1065   1.407       .  A
C1065      C1066   1.406       .  A
C1065     Br1072   1.929       .  S
C1066      C1067   1.412       .  A
C1066     Br1071   1.921       .  S
C1067      C1068   1.411       .  A
C1068     Br1069   1.920       .  S
C1073      C1074   1.414       .  A
C1073      C1078   1.407       .  A
C1073     Br1080   1.916       .  S
C1074      C1075   1.417       .  A
C1075      C1076   1.406       .  A
C1075     Br1082   1.927       .  S
C1076      C1077   1.408       .  A
C1076     Br1081   1.934       .  S
C1077      C1078   1.400       .  A
C1078     Br1079   1.923       .  S
C1083      C1084   1.412       .  A
C1083      C1088   1.406   1_556  A
C1083     Br1090   1.935       .  S
C1084      C1085   1.409   1_556  A
C1085      C1086   1.412       .  A
C1085     Br1092   1.927   1_554  S
C1086      C1087   1.415       .  A
C1086     Br1091   1.916       .  S
C1087      C1088   1.413       .  A
C1088     Br1089   1.934       .  S
C1093      C1094   1.414       .  A
C1093      C1098   1.409   1_556  A
C1093     Br1100   1.934       .  S
C1094      C1095   1.412       .  A
C1095      C1096   1.414   1_556  A
C1095     Br1102   1.919       .  S
C1096      C1097   1.412       .  A
C1096     Br1101   1.921       .  S
C1097      C1098   1.416       .  A
C1098     Br1099   1.936       .  S
C1103      C1104   1.401       .  A
C1103      C1108   1.410       .  A
C1103     Br1110   1.923       .  S
C1104      C1105   1.410       .  A
C1105      C1106   1.407       .  A
C1105     Br1112   1.932       .  S
C1106      C1107   1.414       .  A
C1106     Br1111   1.928       .  S
C1107      C1108   1.415       .  A
C1108     Br1109   1.914       .  S
C1113      C1114   1.401       .  A
C1113      C1118   1.411       .  A
C1113     Br1120   1.924       .  S
C1114      C1115   1.408       .  A
C1115      C1116   1.409       .  A
C1115     Br1122   1.931       .  S
C1116      C1117   1.416       .  A
C1116     Br1121   1.927       .  S
C1117      C1118   1.416       .  A
C1118     Br1119   1.912       .  S
C1123      C1124   1.412       .  A
C1123      C1128   1.414       .  A
C1123     Br1130   1.921       .  S
C1124      C1125   1.413       .  A
C1125      C1126   1.409       .  A
C1125     Br1132   1.935       .  S
C1126      C1127   1.416       .  A
C1126     Br1131   1.936       .  S
C1127      C1128   1.412       .  A
C1128     Br1129   1.924       .  S
C1133      C1134   1.413       .  A
C1133      C1138   1.412       .  A
C1133     Br1140   1.920       .  S
C1134      C1135   1.412       .  A
C1135      C1136   1.407       .  A
C1135     Br1142   1.934       .  S
C1136      C1137   1.416       .  A
C1136     Br1141   1.936       .  S
C1137      C1138   1.410       .  A
C1138     Br1139   1.926       .  S
C1143      C1144   1.414       .  A
C1143      C1148   1.410       .  A
C1143     Br1150   1.914       .  S
C1144      C1145   1.415       .  A
C1145      C1146   1.408       .  A
C1145     Br1152   1.927       .  S
C1146      C1147   1.408       .  A
C1146     Br1151   1.931       .  S
C1147      C1148   1.402       .  A
C1148     Br1149   1.923       .  S
