geometry optimzed in LAMMPS
_audit_creation_date              2020-12-01 
_audit_creation_method            'lammps2cif' 
_symmetry_space_group_name_H-M    'P1' 
_symmetry_Int_Tables_number       1 
_symmetry_cell_setting            triclinic 
loop_ 
_symmetry_equiv_pos_as_xyz 
  x,y,z 
_cell_length_a                    35.4039569 
_cell_length_b                    35.96053082972437 
_cell_length_c                    34.595147853723695 
_cell_angle_alpha                 90.53725035676166 
_cell_angle_beta                  89.73382845044448 
_cell_angle_gamma                 119.03877654134386 
loop_ 
_atom_site_label 
_atom_site_type_symbol 
_atom_site_fract_x 
_atom_site_fract_y 
_atom_site_fract_z 
_atom_site_charge 
C1          C  0.33286171  0.17288348  0.01692535     0.30500
C2          C  0.33627123  0.17419864  0.43744333     0.30500
C3          C  0.35637939  0.15091403  0.99794025    -0.05700
C4          C  0.28915397  0.14981943  0.99600399    -0.06500
C5          C  0.35480921  0.21661555  0.99818865    -0.06300
C6          C  0.35755466  0.15070165  0.45753364    -0.05700
C7          C  0.29033083  0.15111210  0.45559042    -0.06500
C8          C  0.35683628  0.21760919  0.45808369    -0.06400
C9          C  0.37447511  0.12448469  0.44684202    -0.31700
N10         N  0.38526038  0.11113496  0.47939559     0.14800
C11         C  0.37359228  0.12616015  0.01053916    -0.31700
H12         H  0.37626828  0.11819382  0.04008002     0.16700
C13         C  0.24782026  0.12731712  0.44311008    -0.30700
N14         N  0.22215847  0.11121001  0.97463371     0.13500
C15         C  0.24711529  0.12341165  0.00666621    -0.30700
C16         C  0.37947123  0.25990421  0.44762355    -0.31000
N17         N  0.39039248  0.28382549  0.98044138     0.14000
H18         H  0.38778398  0.27229150  0.41859920     0.16600
C19         C  0.37556670  0.25783358  0.01136759    -0.31000
H20         H  0.38048313  0.26825669  0.04127609     0.16600
H21         H  0.23510501  0.11359405  0.03563591     0.16600
H22         H  0.37809086  0.11514394  0.41782908     0.16700
H23         H  0.23626924  0.12129077  0.41358954     0.16600
C24         C  0.33200795  0.16796154  0.18758363     0.30500
C25         C  0.33321316  0.16958433  0.26708313     0.30500
C26         C  0.35408868  0.14478901  0.20702842    -0.05700
C27         C  0.35405332  0.21202284  0.20699265    -0.06500
C28         C  0.28710143  0.14591275  0.20777772    -0.06300
C29         C  0.35442012  0.14564667  0.24751019    -0.05700
C30         C  0.35553249  0.21237351  0.24701058    -0.06500
C31         C  0.28827002  0.14709113  0.24823211    -0.06400
C32         C  0.37239561  0.12131570  0.25945176    -0.31700
N33         N  0.38418414  0.10691256  0.22790318     0.14800
C34         C  0.37250163  0.12005850  0.19569957    -0.31700
H35         H  0.37646253  0.11152505  0.16653575     0.16700
C36         C  0.37798936  0.25383807  0.25904850    -0.30700
N37         N  0.38882502  0.27886616  0.22753754     0.13500
C38         C  0.37397393  0.25402302  0.19540953    -0.30700
C39         C  0.24698485  0.12120823  0.26120861    -0.31000
N40         N  0.22038106  0.10544344  0.23040363     0.14000
H41         H  0.23694409  0.11298041  0.29091236     0.16600
C42         C  0.24424356  0.11912525  0.19753588    -0.31000
H43         H  0.23139435  0.10943688  0.16866170     0.16600
H44         H  0.37780318  0.26558434  0.16609964     0.16600
H45         H  0.37692942  0.11444272  0.28892644     0.16700
H46         H  0.38479969  0.26517813  0.28866320     0.16600
C47         C  0.16492160  0.33165337  0.06222617     0.30500
C48         C  0.16602707  0.33126241  0.48272533     0.30500
C49         C  0.14151100  0.35322555  0.04226304    -0.05700
C50         C  0.20992365  0.35336211  0.04299817    -0.06500
C51         C  0.14276771  0.28731275  0.04224308    -0.06300
C52         C  0.14352191  0.35390963  0.50188340    -0.05700
C53         C  0.21031492  0.35421665  0.50268907    -0.06500
C54         C  0.14502280  0.28784991  0.50208071    -0.06400
C55         C  0.12686503  0.37903846  0.48934712    -0.31700
N56         N  0.11204769  0.39120950  0.52029501     0.14800
C57         C  0.11985819  0.37520706  0.05275693    -0.31700
H58         H  0.11061291  0.37958506  0.08155488     0.16700
C59         C  0.25257266  0.37896758  0.49152388    -0.30700
N60         N  0.27783591  0.39105888  0.02344209     0.13500
C61         C  0.25248047  0.37531068  0.05517950    -0.30700
C62         C  0.12546152  0.24661744  0.48900491    -0.31000
N63         N  0.10924161  0.22071242  0.51975557     0.14000
H64         H  0.12165875  0.23612729  0.45913275     0.16600
C65         C  0.11861808  0.24479377  0.05243363    -0.31000
H66         H  0.10828536  0.23214297  0.08113466     0.16600
H67         H  0.26400439  0.38029473  0.08469702     0.16600
H68         H  0.12627692  0.38869197  0.45993746     0.16700
H69         H  0.26455476  0.38762843  0.46231428     0.16600
C70         C  0.16312716  0.32482304  0.23288755     0.30500
C71         C  0.16528503  0.32561859  0.31233710     0.30500
C72         C  0.14072616  0.34718631  0.25328076    -0.05700
C73         C  0.14040679  0.28123769  0.25247839    -0.06500
C74         C  0.20779610  0.34659890  0.25158017    -0.06300
C75         C  0.14207308  0.34825940  0.29371504    -0.05700
C76         C  0.14260131  0.28146512  0.29269583    -0.06500
C77         C  0.20939409  0.34836989  0.29177114    -0.06400
C78         C  0.12162673  0.37104561  0.30566013    -0.31700
N79         N  0.10758557  0.38244631  0.27378299     0.14800
C80         C  0.11835617  0.36756072  0.24199268    -0.31700
H81         H  0.10973636  0.37102528  0.21279203     0.16700
C82         C  0.12127707  0.23950572  0.30445565    -0.30700
N83         N  0.10487794  0.21457601  0.27254766     0.13500
C84         C  0.11507410  0.23967208  0.24104843    -0.30700
C85         C  0.25208694  0.37536544  0.30161403    -0.31000
N86         N  0.27574548  0.38701135  0.26866145     0.14000
H87         H  0.26506271  0.38629683  0.33026985     0.16600
C88         C  0.24912561  0.37002390  0.23800243    -0.31000
H89         H  0.25907633  0.37551698  0.20801844     0.16600
H90         H  0.10505165  0.22810132  0.21189426     0.16600
H91         H  0.11753645  0.37915177  0.33499224     0.16700
H92         H  0.11781925  0.22803214  0.33377898     0.16600
O93         O  0.44478600  0.02234116  0.02705866    -0.87800
C94         C  0.43110363  0.43743702  0.44244671     0.88200
Mg95       Mg  0.49301803  0.08786665  0.02482014     1.58100
O96         O  0.48215567  0.43041952  0.02708607    -0.87600
O97         O  0.42691774  0.46919065  0.06634990    -0.74900
C98         C  0.17605536  0.08976278  0.47646717     0.93200
O99         O  0.46098981  0.03873425  0.43561477    -0.74700
O100        O  0.15641435  0.11081527  0.47003677    -0.82200
Mg101      Mg  0.40542181  0.49558162  0.47581697     1.58000
C102        C  0.09150590  0.41671423  0.01737065     0.93200
O103        O  0.34267724  0.45076797  0.00801738    -0.80500
H104        H  0.48125028  0.42100644  0.08400854    -0.05800
C105        C  0.06353945  0.99705337  0.43911216     0.88100
O106        O  0.03951318  0.07665410  0.06263948    -0.75000
O107        O  0.42482295  0.44782761  0.47498032    -0.87800
O108        O  0.05243319  0.39885151  0.00594372    -0.80600
C109        C  0.41538633  0.32892970  0.48356943     0.93300
C110        C  0.32388465  0.41320697  0.02165053     0.93100
Mg111      Mg  0.09441815  0.00833168  0.02278132     1.58000
O112        O  0.15675873  0.05197918  0.48954080    -0.80500
O113        O  0.03913253  0.46600324  0.06348646    -0.74700
O114        O  0.39740014  0.34926212  0.49761130    -0.80600
O115        O  0.38496059  0.04631922  0.47619397    -0.82300
O116        O  0.10251197  0.15537072  0.00223529    -0.80600
C117        C  0.99994006  0.43787294  0.05903178     0.87600
O118        O  0.07549719  0.05660737  0.02397220    -0.87700
O119        O  0.05477235  0.48177574  0.47187842    -0.87900
O120        O  0.07287173  0.03525945  0.43284203    -0.74900
Mg121      Mg  0.41504024  0.41234845  0.02797530     1.58000
O122        O  0.45544120  0.34685033  0.47562352    -0.82300
H123        H  0.43754869  0.02746916  0.08387164    -0.06000
O124        O  0.01785666  0.07447865  0.47209330    -0.87600
H125        H  0.01873609  0.08417814  0.41522614    -0.05800
H126        H  0.08785469  0.06600314  0.08059099    -0.06000
C127        C  0.50009384  0.06707349  0.44015823     0.87500
C128        C  0.43592910  0.50724189  0.05985767     0.88100
C129        C  0.06899864  0.06689560  0.05647889     0.88200
H130        H  0.06166716  0.47689107  0.41495976    -0.06000
O131        O  0.46048964  0.42759961  0.43617223    -0.75000
Mg132      Mg  0.08517078  0.09226171  0.47129876     1.58000
H133        H  0.41218983  0.43838836  0.41839914    -0.06000
C134        C  0.40651995  0.08622263  0.48216986     0.93200
O135        O  0.04412617  0.15751265  0.02396846    -0.82200
C136        C  0.08431081  0.17555924  0.01634482     0.93200
O137        O  0.34408178  0.39302632  0.02916013    -0.82200
Mg138      Mg  0.00643544  0.41628489  0.47447421     1.58200
O139        O  0.44546665  0.10443744  0.49423912    -0.80600
O140        O  0.11388677  0.45676330  0.02224863    -0.82300
O141        O  0.01936851  0.44203332  0.22492814    -0.87800
C142        C  0.43182952  0.43007213  0.30799587     0.88200
Mg143      Mg  0.08606034  0.48928986  0.22724575     1.58100
O144        O  0.42355438  0.47770480  0.22219253    -0.87600
O145        O  0.46518025  0.42410534  0.18526859    -0.74900
C146        C  0.08447926  0.16928846  0.27002660     0.93200
O147        O  0.03547319  0.46084638  0.31644065    -0.74700
O148        O  0.10663020  0.15086466  0.27697329    -0.82200
Mg149      Mg  0.49193839  0.40512996  0.27668678     1.58000
C150        C  0.40905594  0.08542255  0.23006374     0.93200
O151        O  0.44741486  0.34329133  0.24466002    -0.80500
H152        H  0.41242861  0.47436936  0.16533189    -0.05800
C153        C  0.99183616  0.05969975  0.30894020     0.88100
O154        O  0.07413133  0.03357476  0.18774816    -0.75000
O155        O  0.44312687  0.42388804  0.27583732    -0.87800
O156        O  0.39070891  0.04743399  0.24253278    -0.80600
C157        C  0.32136474  0.41248321  0.26540579     0.93300
C158        C  0.40970858  0.32400739  0.23002593     0.93100
Mg159      Mg  0.00218583  0.08727349  0.22435818     1.58000
O160        O  0.04622931  0.14941597  0.25657221    -0.80500
O161        O  0.45901424  0.03199643  0.18428182    -0.74700
O162        O  0.34260916  0.39507042  0.25203232    -0.80600
O163        O  0.04327356  0.38484187  0.27783657    -0.82300
O164        O  0.15319303  0.09787740  0.24622600    -0.80600
C165        C  0.43027999  0.99380424  0.18980516     0.87600
O166        O  0.05159777  0.06868684  0.22453298    -0.87700
O167        O  0.47572645  0.05026783  0.27627383    -0.87900
O168        O  0.03083482  0.06925989  0.31513568    -0.74900
Mg169      Mg  0.40682434  0.41230583  0.22248067     1.58000
O170        O  0.33881804  0.45204055  0.27294079    -0.82300
H171        H  0.02431366  0.43437180  0.16817516    -0.06000
O172        O  0.07212382  0.01522260  0.27873252    -0.87600
H173        H  0.08196636  0.01834788  0.33581205    -0.05800
H174        H  0.06141963  0.07922452  0.16781182    -0.06000
C175        C  0.06451229  0.49902871  0.31113304     0.87500
C176        C  0.50384817  0.43298445  0.19206095     0.88100
C177        C  0.06268956  0.06174185  0.19254674     0.88200
H178        H  0.47170264  0.05827361  0.33312217    -0.06000
O179        O  0.42095539  0.45849252  0.31352257    -0.75000
Mg180      Mg  0.08890258  0.08102095  0.27723876     1.58000
H181        H  0.43281668  0.41192507  0.33232037    -0.06000
C182        C  0.08379762  0.40505412  0.27190984     0.93200
O183        O  0.15701753  0.03998992  0.22822603    -0.82200
C184        C  0.17452432  0.07997549  0.23388946     0.93200
O185        O  0.38836241  0.34285496  0.22190527    -0.82200
Mg186      Mg  0.40912475  0.00264972  0.27419501     1.58200
O187        O  0.10306878  0.44323212  0.25959635    -0.80600
O188        O  0.44956131  0.10635447  0.22383856    -0.82300
C189        C  0.19734470  0.32429561  0.41878784    -0.11800
C190        C  0.16422959  0.32751883  0.43852002     0.05200
C191        C  0.12678106  0.31892968  0.41685234    -0.07100
C192        C  0.12836762  0.31843429  0.37644286    -0.07800
C193        C  0.16512438  0.32344948  0.35648492    -0.02400
C194        C  0.19750626  0.32060304  0.37836082     0.04500
N195        N  0.22825558  0.31018283  0.36100788     0.67000
H196        H  0.22178260  0.32147593  0.43503767     0.15900
H197        H  0.09957993  0.31196877  0.36052683     0.15600
N198        N  0.08596773  0.30759854  0.43475963     0.74700
O199        O  0.26553250  0.32469255  0.37542094    -0.38800
O200        O  0.21623523  0.28128821  0.33556247    -0.38700
O201        O  0.06372653  0.32397045  0.42283999    -0.39400
O202        O  0.06787309  0.27474568  0.45536155    -0.39500
C203        C  0.17126039  0.36373411  0.17021132    -0.11800
C204        C  0.16567625  0.32667608  0.18859175     0.05200
C205        C  0.17134540  0.29697899  0.16542934    -0.07100
C206        C  0.17080125  0.29971218  0.12508847    -0.07800
C207        C  0.16736870  0.33258218  0.10651418    -0.02400
C208        C  0.17322877  0.36779597  0.12984253     0.04500
N209        N  0.18433846  0.40877737  0.11410614     0.67000
H210        H  0.17702085  0.39116075  0.18748995     0.15900
H211        H  0.17600838  0.27721672  0.10814673     0.15600
N212        N  0.18197063  0.26658429  0.18163166     0.74700
O213        O  0.17162778  0.43213271  0.13077536    -0.38800
O214        O  0.21220068  0.42459901  0.08765282    -0.38700
O215        O  0.16580485  0.22956073  0.16733969    -0.39400
O216        O  0.21349302  0.27888521  0.20454766    -0.39500
C217        C  0.37158890  0.17789516  0.33090542    -0.11800
C218        C  0.33521943  0.17415771  0.31126367     0.05200
C219        C  0.30592818  0.18248674  0.33298706    -0.07100
C220        C  0.30749955  0.18260492  0.37342858    -0.07800
C221        C  0.33919718  0.17757689  0.39330432    -0.02400
C222        C  0.37490670  0.18118971  0.37138315     0.04500
N223        N  0.41577988  0.19159775  0.38875991     0.67000
H224        H  0.39902910  0.18105936  0.31453004     0.15900
H225        H  0.28473856  0.18867303  0.38946447     0.15600
N226        N  0.27658542  0.19400775  0.31508155     0.74700
O227        O  0.43953916  0.17825787  0.37360932    -0.38800
O228        O  0.43134434  0.21943080  0.41516677    -0.38700
O229        O  0.23833278  0.17851561  0.32745791    -0.39400
O230        O  0.29106999  0.22597562  0.29332338    -0.39500
C231        C  0.30025547  0.17343431  0.12381049    -0.11800
C232        C  0.33361883  0.17085681  0.14340073     0.05200
C233        C  0.37105316  0.17925385  0.12158906    -0.07100
C234        C  0.36958961  0.17985818  0.08117880    -0.07800
C235        C  0.33290753  0.17479237  0.06127742    -0.02400
C236        C  0.30047900  0.17748724  0.08348702     0.04500
N237        N  0.27077214  0.18918801  0.06664579     0.66400
H238        H  0.27536323  0.17582359  0.14018163     0.15900
H239        H  0.39855980  0.18650540  0.06517804     0.15600
N240        N  0.41173958  0.19024144  0.13938486     0.74700
O241        O  0.23220900  0.17220869  0.07849765    -0.38800
O242        O  0.28495789  0.22217091  0.04623059    -0.38700
O243        O  0.43400431  0.17403560  0.12658776    -0.39400
O244        O  0.42985838  0.22289483  0.16069203    -0.39500
C245        C  0.33286146  0.17288435  0.51692600     0.30500
C246        C  0.33627124  0.17419636  0.93744274     0.30500
C247        C  0.35637937  0.15091545  0.49794040    -0.05700
C248        C  0.28915390  0.14982043  0.49600452    -0.06500
C249        C  0.35480878  0.21661680  0.49819000    -0.06300
C250        C  0.35755447  0.15069956  0.95753350    -0.05700
C251        C  0.29033093  0.15111029  0.95558984    -0.06500
C252        C  0.35683648  0.21760718  0.95808237    -0.06400
C253        C  0.37447452  0.12448234  0.94684245    -0.31700
N254        N  0.38526001  0.11113304  0.97939577     0.14800
C255        C  0.37359222  0.12616151  0.51053871    -0.31700
H256        H  0.37626805  0.11819442  0.54008065     0.16700
C257        C  0.24782049  0.12731502  0.94310930    -0.30700
N258        N  0.22215840  0.11121136  0.47463436     0.13500
C259        C  0.24711534  0.12341209  0.50666690    -0.30700
C260        C  0.37947130  0.25990196  0.94762137    -0.31000
N261        N  0.39039227  0.28382718  0.48044382     0.14000
H262        H  0.38778360  0.27228852  0.91859723     0.16600
C263        C  0.37556618  0.25783463  0.51136972    -0.31000
H264        H  0.38048245  0.26825699  0.54127800     0.16600
H265        H  0.23510547  0.11359384  0.53563579     0.16600
H266        H  0.37809007  0.11514077  0.91782849     0.16700
H267        H  0.23626980  0.12128805  0.91358905     0.16600
C268        C  0.33200592  0.16795595  0.68758392     0.30500
C269        C  0.33321209  0.16957920  0.76708324     0.30500
C270        C  0.35408679  0.14478337  0.70702844    -0.05700
C271        C  0.35405164  0.21201734  0.70699270    -0.06500
C272        C  0.28709957  0.14590731  0.70777838    -0.06300
C273        C  0.35441865  0.14564126  0.74751020    -0.05700
C274        C  0.35553142  0.21236821  0.74701053    -0.06500
C275        C  0.28826869  0.14708604  0.74823273    -0.06400
C276        C  0.37239414  0.12131022  0.75945203    -0.31700
N277        N  0.38418228  0.10690689  0.72790292     0.14800
C278        C  0.37249954  0.12005280  0.69569984    -0.31700
H279        H  0.37646039  0.11151891  0.66653451     0.16700
C280        C  0.37798895  0.25383277  0.75904833    -0.30700
N281        N  0.38882424  0.27886075  0.72753731     0.13500
C282        C  0.37397236  0.25401751  0.69540945    -0.30700
C283        C  0.24698369  0.12120324  0.76120987    -0.31000
N284        N  0.22037947  0.10543792  0.73040510     0.14000
H285        H  0.23694352  0.11297598  0.79091341     0.16600
C286        C  0.24424156  0.11911945  0.69753715    -0.31000
H287        H  0.23139190  0.10943060  0.66866291     0.16600
H288        H  0.37780119  0.26557873  0.66609954     0.16600
H289        H  0.37692799  0.11443761  0.78892531     0.16700
H290        H  0.38479985  0.26517286  0.78866284     0.16600
C291        C  0.16492209  0.33165504  0.56222672     0.30500
C292        C  0.16602614  0.33125829  0.98272482     0.30500
C293        C  0.14151235  0.35322862  0.54226453    -0.05700
C294        C  0.20992420  0.35336363  0.54299898    -0.06500
C295        C  0.14276765  0.28731517  0.54224250    -0.06300
C296        C  0.14352036  0.35390535  0.00188193    -0.05700
C297        C  0.21031405  0.35421382  0.00268825    -0.06500
C298        C  0.14502273  0.28784646  0.00208129    -0.06400
C299        C  0.12686318  0.37903356  0.98934472    -0.31700
N300        N  0.11204581  0.39120534  0.02029198     0.14800
C301        C  0.11985985  0.37521014  0.55275930    -0.31700
H302        H  0.11061434  0.37958727  0.58155774     0.16700
C303        C  0.25257166  0.37896447  0.99152246    -0.30700
N304        N  0.27783659  0.39106088  0.52344364     0.13500
C305        C  0.25248085  0.37531162  0.55518076    -0.30700
C306        C  0.12546164  0.24661373  0.98900602    -0.31000
N307        N  0.10924178  0.22070938  0.01975737     0.14000
H308        H  0.12165885  0.23612328  0.95913505     0.16600
C309        C  0.11861780  0.24479602  0.55243249    -0.31000
H310        H  0.10828527  0.23214485  0.58113255     0.16600
H311        H  0.26400440  0.38029478  0.58469821     0.16600
H312        H  0.12627516  0.38868647  0.95993452     0.16700
H313        H  0.26455336  0.38762416  0.96231297     0.16600
C314        C  0.16312629  0.32481810  0.73288769     0.30500
C315        C  0.16528456  0.32561319  0.81233715     0.30500
C316        C  0.14072512  0.34718089  0.75328130    -0.05700
C317        C  0.14040624  0.28123252  0.75247828    -0.06500
C318        C  0.20779536  0.34659403  0.75158016    -0.06300
C319        C  0.14207229  0.34825384  0.79371551    -0.05700
C320        C  0.14260098  0.28145985  0.79269571    -0.06500
C321        C  0.20939354  0.34836478  0.79177112    -0.06400
C322        C  0.12162556  0.37103957  0.80566093    -0.31700
N323        N  0.10758386  0.38244000  0.77378401     0.14800
C324        C  0.11835457  0.36755481  0.74199352    -0.31700
H325        H  0.10973463  0.37101942  0.71279297     0.16700
C326        C  0.12127658  0.23950057  0.80445546    -0.30700
N327        N  0.10487707  0.21457082  0.77254779     0.13500
C328        C  0.11507315  0.23966681  0.74104824    -0.30700
C329        C  0.25208653  0.37536015  0.80161406    -0.31000
N330        N  0.27574487  0.38700617  0.76866118     0.14000
H331        H  0.26506223  0.38629106  0.83026926     0.16600
C332        C  0.24912481  0.37001893  0.73800243    -0.31000
H333        H  0.25907556  0.37551215  0.70801784     0.16600
H334        H  0.10505051  0.22809627  0.71189490     0.16600
H335        H  0.11753534  0.37914558  0.83499322     0.16700
H336        H  0.11781872  0.22802685  0.83377940     0.16600
O337        O  0.44478740  0.02234437  0.52706002    -0.87800
C338        C  0.43110269  0.43743520  0.94244371     0.88200
Mg339      Mg  0.49301932  0.08786983  0.52481965     1.58100
O340        O  0.48215621  0.43042152  0.52708944    -0.87600
O341        O  0.42691876  0.46919373  0.56635214    -0.74900
C342        C  0.17605540  0.08976098  0.97646587     0.93200
O343        O  0.46098985  0.03873313  0.93561385    -0.74700
O344        O  0.15641422  0.11081344  0.97003627    -0.82200
Mg345      Mg  0.40542140  0.49557975  0.97581506     1.58000
C346        C  0.09150710  0.41671786  0.51737440     0.93200
O347        O  0.34267786  0.45077021  0.50801951    -0.80500
H348        H  0.48125056  0.42100917  0.58401235    -0.05800
C349        C  0.06353915  0.99705201  0.93910825     0.88100
O350        O  0.03951386  0.07665880  0.56264074    -0.75000
O351        O  0.42482217  0.44782554  0.97497757    -0.87800
O352        O  0.05243433  0.39885473  0.50594755    -0.80600
C353        C  0.41538613  0.32892801  0.98356624     0.93300
C354        C  0.32388532  0.41320920  0.52165263     0.93100
Mg355      Mg  0.09441862  0.00833501  0.52278488     1.58000
O356        O  0.15675875  0.05197669  0.98953800    -0.80500
O357        O  0.03913345  0.46600790  0.56348973    -0.74700
O358        O  0.39739971  0.34926024  0.99760806    -0.80600
O359        O  0.38496025  0.04631741  0.97619271    -0.82300
O360        O  0.10251221  0.15537364  0.50223437    -0.80600
C361        C  0.99994134  0.43787742  0.55903492     0.87600
O362        O  0.07549774  0.05661090  0.52397447    -0.87700
O363        O  0.05477169  0.48177321  0.97187540    -0.87900
O364        O  0.07287166  0.03525856  0.93283944    -0.74900
Mg365      Mg  0.41504088  0.41235079  0.52797824     1.58000
O366        O  0.45544090  0.34684884  0.97562006    -0.82300
H367        H  0.43755146  0.02747305  0.58387262    -0.06000
O368        O  0.01785665  0.07447707  0.97209211    -0.87600
H369        H  0.01873608  0.08417718  0.91522572    -0.05800
H370        H  0.08785565  0.06600844  0.58059333    -0.06000
C371        C  0.50009381  0.06707254  0.94015794     0.87500
C372        C  0.43593006  0.50724503  0.55985972     0.88100
C373        C  0.06899926  0.06690013  0.55648071     0.88200
H374        H  0.06166625  0.47689026  0.91495639    -0.06000
O375        O  0.46048890  0.42759804  0.93616896    -0.75000
Mg376      Mg  0.08517069  0.09225986  0.97129774     1.58000
H377        H  0.41218899  0.43838657  0.91839667    -0.06000
C378        C  0.40651941  0.08622059  0.98217013     0.93200
O379        O  0.04412621  0.15751572  0.52396674    -0.82200
C380        C  0.08431077  0.17556232  0.51634305     0.93200
O381        O  0.34408254  0.39302876  0.52916265    -0.82200
Mg382      Mg  0.00643464  0.41628219  0.97447055     1.58200
O383        O  0.44546569  0.10443496  0.99424034    -0.80600
O384        O  0.11388754  0.45676697  0.52225248    -0.82300
O385        O  0.01936714  0.44202688  0.72492868    -0.87800
C386        C  0.43182854  0.43006679  0.80799583     0.88200
Mg387      Mg  0.08605907  0.48928339  0.72724692     1.58100
O388        O  0.42355406  0.47769937  0.72219247    -0.87600
O389        O  0.46518003  0.42409989  0.68526893    -0.74900
C390        C  0.08447799  0.16928322  0.77002703     0.93200
O391        O  0.03547096  0.46083965  0.81644116    -0.74700
O392        O  0.10662863  0.15085923  0.77697436    -0.82200
Mg393      Mg  0.49193729  0.40512426  0.77668726     1.58000
C394        C  0.40905383  0.08541662  0.73006361     0.93200
O395        O  0.44741398  0.34328582  0.74466010    -0.80500
H396        H  0.41242931  0.47436456  0.66533279    -0.05800
C397        C  0.99183463  0.05969482  0.80894172     0.88100
O398        O  0.07412981  0.03356906  0.68775023    -0.75000
O399        O  0.44312586  0.42388238  0.77583752    -0.87800
O400        O  0.39070664  0.04742812  0.74253268    -0.80600
C401        C  0.32136415  0.41247798  0.76540546     0.93300
C402        C  0.40970784  0.32400197  0.73002575     0.93100
Mg403      Mg  0.00218417  0.08726779  0.72435950     1.58000
O404        O  0.04622802  0.14941080  0.75657275    -0.80500
O405        O  0.45901203  0.03199019  0.68428220    -0.74700
O406        O  0.34260848  0.39506510  0.75203193    -0.80600
O407        O  0.04327165  0.38483517  0.77783705    -0.82300
O408        O  0.15319145  0.09787175  0.74622801    -0.80600
C409        C  0.43027773  0.99379825  0.68980570     0.87600
O410        O  0.05159608  0.06868110  0.72453478    -0.87700
O411        O  0.47572386  0.05026171  0.77627421    -0.87900
O412        O  0.03083316  0.06925493  0.81513741    -0.74900
Mg413      Mg  0.40682383  0.41230042  0.72248058     1.58000
O414        O  0.33881755  0.45203532  0.77294045    -0.82300
H415        H  0.02431268  0.43436542  0.66817589    -0.06000
O416        O  0.07212199  0.01521712  0.77873485    -0.87600
H417        H  0.08196433  0.01834272  0.83581496    -0.05800
H418        H  0.06141820  0.07921925  0.66781305    -0.06000
C419        C  0.06451002  0.49902206  0.81113386     0.87500
C420        C  0.50384794  0.43297901  0.69206155     0.88100
C421        C  0.06268803  0.06173600  0.69254884     0.88200
H422        H  0.47170040  0.05826787  0.83312183    -0.06000
O423        O  0.42095471  0.45848730  0.81352252    -0.75000
Mg424      Mg  0.08890090  0.08101555  0.77724061     1.58000
H425        H  0.43281557  0.41191928  0.83232108    -0.06000
C426        C  0.08379584  0.40504770  0.77191107     0.93200
O427        O  0.15701594  0.03998423  0.72822825    -0.82200
C428        C  0.17452274  0.07996986  0.73389147     0.93200
O429        O  0.38836173  0.34284956  0.72190500    -0.82200
Mg430      Mg  0.40912203  0.00264368  0.77419521     1.58200
O431        O  0.10306715  0.44322593  0.75959823    -0.80600
O432        O  0.44955925  0.10634844  0.72383850    -0.82300
C433        C  0.19734376  0.32429029  0.91878783    -0.11800
C434        C  0.16422848  0.32751344  0.93851971     0.05200
C435        C  0.12677975  0.31892338  0.91685192    -0.07100
C436        C  0.12836651  0.31842771  0.87644255    -0.07800
C437        C  0.16512366  0.32344371  0.85648485    -0.02400
C438        C  0.19750566  0.32059764  0.87836090     0.04500
N439        N  0.22825527  0.31017772  0.86100815     0.67000
H440        H  0.22178190  0.32147093  0.93503806     0.15900
H441        H  0.09957853  0.31196155  0.86052624     0.15600
N442        N  0.08596625  0.30759176  0.93475907     0.74700
O443        O  0.26553190  0.32468710  0.87542178    -0.38800
O444        O  0.21623545  0.28128366  0.83556225    -0.38700
O445        O  0.06372460  0.32396307  0.92283914    -0.39400
O446        O  0.06787191  0.27473889  0.95536100    -0.39500
C447        C  0.17126062  0.36373160  0.67021291    -0.11800
C448        C  0.16567535  0.32667242  0.68859198     0.05200
C449        C  0.17134389  0.29697577  0.66542843    -0.07100
C450        C  0.17080068  0.29971093  0.62508769    -0.07800
C451        C  0.16736892  0.33258206  0.60651469    -0.02400
C452        C  0.17322938  0.36779510  0.62984429     0.04500
N453        N  0.18433988  0.40877731  0.61410935     0.67000
H454        H  0.17702143  0.39115769  0.68749252     0.15900
H455        H  0.17600786  0.27721607  0.60814509     0.15600
N456        N  0.18196781  0.26657964  0.68162951     0.74700
O457        O  0.17162980  0.43213253  0.63077971    -0.38800
O458        O  0.21220235  0.42459960  0.58765629    -0.38700
O459        O  0.16580145  0.22955665  0.66733618    -0.39400
O460        O  0.21348958  0.27887881  0.70454600    -0.39500
C461        C  0.37158820  0.17789043  0.83090520    -0.11800
C462        C  0.33521879  0.17415317  0.81126353     0.05200
C463        C  0.30592832  0.18248358  0.83298659    -0.07100
C464        C  0.30749984  0.18260243  0.87342803    -0.07800
C465        C  0.33919714  0.17757396  0.89330384    -0.02400
C466        C  0.37490641  0.18118600  0.87138282     0.04500
N467        N  0.41577976  0.19159448  0.88875952     0.67000
H468        H  0.39902814  0.18105394  0.81452978     0.15900
H469        H  0.28473924  0.18867124  0.88946377     0.15600
N470        N  0.27658630  0.19400535  0.81508073     0.74700
O471        O  0.43953913  0.17825460  0.87360910    -0.38800
O472        O  0.43134427  0.21942792  0.91516605    -0.38700
O473        O  0.23833348  0.17851346  0.82745654    -0.39400
O474        O  0.29107188  0.22597408  0.79332356    -0.39500
C475        C  0.30025321  0.17342937  0.62381136    -0.11800
C476        C  0.33361674  0.17085168  0.64340112     0.05200
C477        C  0.37105160  0.17925042  0.62158951    -0.07100
C478        C  0.36958897  0.17985744  0.58117933    -0.07800
C479        C  0.33290694  0.17479199  0.56127812    -0.02400
C480        C  0.30047746  0.17748464  0.58348813     0.04500
N481        N  0.27077028  0.18918561  0.56664789     0.66400
H482        H  0.27536059  0.17581731  0.64018272     0.15900
H483        H  0.39855940  0.18650592  0.56517872     0.15600
N484        N  0.41173763  0.19023667  0.63938542     0.74700
O485        O  0.23220716  0.17220570  0.57849988    -0.38800
O486        O  0.28495563  0.22216879  0.54623312    -0.38700
O487        O  0.43400166  0.17403026  0.62658790    -0.39400
O488        O  0.42985709  0.22288977  0.66069288    -0.39500
C489        C  0.33286066  0.67288238  0.01693093     0.30500
C490        C  0.33626895  0.67419808  0.43744882     0.30500
C491        C  0.35637923  0.65091420  0.99794524    -0.05700
C492        C  0.28915266  0.64981704  0.99601028    -0.06500
C493        C  0.35480655  0.71661439  0.99819422    -0.06300
C494        C  0.35755397  0.65070217  0.45753853    -0.05700
C495        C  0.29032899  0.65111034  0.45559658    -0.06500
C496        C  0.35683325  0.71760856  0.45808928    -0.06400
C497        C  0.37447474  0.62448570  0.44684661    -0.31700
N498        N  0.38526090  0.61113622  0.47939959     0.14800
C499        C  0.37359290  0.62616087  0.01054344    -0.31700
H500        H  0.37626922  0.61819402  0.04008487     0.16700
C501        C  0.24781825  0.62731483  0.44311679    -0.30700
N502        N  0.22215688  0.61120683  0.97464131     0.13500
C503        C  0.24711444  0.62340863  0.00667333    -0.30700
C504        C  0.37946833  0.75990371  0.44762911    -0.31000
N505        N  0.39038984  0.78382432  0.98044715     0.14000
H506        H  0.38778082  0.77229082  0.41860569     0.16600
C507        C  0.37556456  0.75783233  0.01137331    -0.31000
H508        H  0.38048208  0.76825528  0.04128183     0.16600
H509        H  0.23510500  0.61359124  0.03564310     0.16600
H510        H  0.37809005  0.61514465  0.41783264     0.16700
H511        H  0.23626667  0.62128874  0.41359690     0.16600
C512        C  0.33200671  0.66796081  0.18758906     0.30500
C513        C  0.33320872  0.66958311  0.26708859     0.30500
C514        C  0.35408536  0.64478703  0.20703494    -0.05700
C515        C  0.35405277  0.71202189  0.20699826    -0.06500
C516        C  0.28709954  0.64591312  0.20778168    -0.06300
C517        C  0.35441510  0.64564442  0.24751673    -0.05700
C518        C  0.35553019  0.71237240  0.24701626    -0.06500
C519        C  0.28826618  0.64709121  0.24823613    -0.06400
C520        C  0.37239045  0.62131381  0.25945960    -0.31700
N521        N  0.38418040  0.60691113  0.22791151     0.14800
C522        C  0.37249897  0.62005693  0.19570741    -0.31700
H523        H  0.37646153  0.61152371  0.16654326     0.16700
C524        C  0.37798863  0.75383689  0.25905436    -0.30700
N525        N  0.38882751  0.77886500  0.22754311     0.13500
C526        C  0.37397639  0.75402201  0.19541513    -0.30700
C527        C  0.24698035  0.62120722  0.26121086    -0.31000
N528        N  0.22037842  0.60544209  0.23040458     0.14000
H529        H  0.23693803  0.61297871  0.29091404     0.16600
C530        C  0.24424263  0.61912466  0.19753801    -0.31000
H531        H  0.23139517  0.60943598  0.16866319     0.16600
H532        H  0.37780771  0.76558350  0.16610490     0.16600
H533        H  0.37692376  0.61444146  0.28893412     0.16700
H534        H  0.38479799  0.76517682  0.28866882     0.16600
C535        C  0.16491940  0.83165402  0.06222244     0.30500
C536        C  0.16602766  0.83126044  0.48272154     0.30500
C537        C  0.14150902  0.85322519  0.04225702    -0.05700
C538        C  0.20992172  0.85336229  0.04299511    -0.06500
C539        C  0.14276614  0.78731271  0.04224087    -0.06300
C540        C  0.14352156  0.85390794  0.50187740    -0.05700
C541        C  0.21031489  0.85421578  0.50268633    -0.06500
C542        C  0.14502326  0.78784869  0.50207828    -0.06400
C543        C  0.12686502  0.87903627  0.48933859    -0.31700
N544        N  0.11204668  0.89120827  0.52028533     0.14800
C545        C  0.11985624  0.87520738  0.05274827    -0.31700
H546        H  0.11061016  0.87958691  0.08154591     0.16700
C547        C  0.25257300  0.87896661  0.49152201    -0.30700
N548        N  0.27783429  0.89105897  0.02344016     0.13500
C549        C  0.25247811  0.87531217  0.05517753    -0.30700
C550        C  0.12546243  0.74661568  0.48900369    -0.31000
N551        N  0.10924143  0.72071199  0.51975536     0.14000
H552        H  0.12166054  0.73612458  0.45913284     0.16600
C553        C  0.11861629  0.74479434  0.05243333    -0.31000
H554        H  0.10828335  0.73214534  0.08113414     0.16600
H555        H  0.26400093  0.88029772  0.08469454     0.16600
H556        H  0.12627798  0.88868859  0.45992920     0.16700
H557        H  0.26455604  0.88762631  0.46231289     0.16600
C558        C  0.16313043  0.82482513  0.23288399     0.30500
C559        C  0.16528888  0.82561681  0.31233354     0.30500
C560        C  0.14073170  0.84718941  0.25327911    -0.05700
C561        C  0.14040818  0.78123899  0.25247321    -0.06500
C562        C  0.20779958  0.84659821  0.25157630    -0.06300
C563        C  0.14207903  0.84826066  0.29371336    -0.05700
C564        C  0.14260293  0.78146434  0.29269055    -0.06500
C565        C  0.20939797  0.84836693  0.29176741    -0.06400
C566        C  0.12163284  0.87104636  0.30566040    -0.31700
N567        N  0.10759135  0.88244843  0.27378436     0.14800
C568        C  0.11836137  0.86756408  0.24199294    -0.31700
H569        H  0.10974000  0.87102883  0.21279303     0.16700
C570        C  0.12127703  0.73950441  0.30444858    -0.30700
N571        N  0.10487655  0.71457645  0.27253977     0.13500
C572        C  0.11507391  0.73967420  0.24104158    -0.30700
C573        C  0.25209101  0.87536196  0.30161043    -0.31000
N574        N  0.27574906  0.88701000  0.26865743     0.14000
H575        H  0.26506685  0.88629205  0.33026579     0.16600
C576        C  0.24912885  0.87002438  0.23799859    -0.31000
H577        H  0.25907929  0.87551999  0.20801396     0.16600
H578        H  0.10505177  0.72810519  0.21188701     0.16600
H579        H  0.11754210  0.87915050  0.33499318     0.16700
H580        H  0.11781920  0.72802921  0.33377140     0.16600
O581        O  0.44478777  0.52234120  0.02705790    -0.87800
C582        C  0.43110527  0.93743579  0.44244996     0.88200
Mg583      Mg  0.49301950  0.58786684  0.02482116     1.58100
O584        O  0.48215354  0.93041825  0.02709253    -0.87600
O585        O  0.42691523  0.96919141  0.06635195    -0.74900
C586        C  0.17605428  0.58976057  0.47647504     0.93200
O587        O  0.46098919  0.53873686  0.43561491    -0.74700
O588        O  0.15641352  0.61081285  0.47004269    -0.82200
Mg589      Mg  0.40542182  0.99558056  0.47581713     1.58000
C590        C  0.09150622  0.91671417  0.01735849     0.93200
O591        O  0.34267607  0.95076792  0.00801647    -0.80500
H592        H  0.48124556  0.92100553  0.08401508    -0.05800
C593        C  0.06353992  0.49705103  0.43912048     0.88100
O594        O  0.03950891  0.57665372  0.06264412    -0.75000
O595        O  0.42482328  0.94782672  0.47498315    -0.87800
O596        O  0.05243401  0.89885229  0.00593027    -0.80600
C597        C  0.41538509  0.82892884  0.48357557     0.93300
C598        C  0.32388305  0.91320707  0.02164993     0.93100
Mg599      Mg  0.09441632  0.50833112  0.02279141     1.58000
O600        O  0.15675757  0.55197797  0.48955087    -0.80500
O601        O  0.03913564  0.96600313  0.06347686    -0.74700
O602        O  0.39739906  0.84926195  0.49761625    -0.80600
O603        O  0.38496103  0.54632056  0.47619613    -0.82300
O604        O  0.10251079  0.65536905  0.00223932    -0.80600
C605        C  0.99994339  0.93787238  0.05902276     0.87600
O606        O  0.07549490  0.55660656  0.02397960    -0.87700
O607        O  0.05477213  0.98177706  0.47186984    -0.87900
O608        O  0.07287162  0.53525657  0.43284880    -0.74900
Mg609      Mg  0.41503822  0.91234819  0.02797889     1.58000
O610        O  0.45544028  0.84684867  0.47563111    -0.82300
H611        H  0.43755127  0.52746818  0.08387150    -0.06000
O612        O  0.01785663  0.57447796  0.47209608    -0.87600
H613        H  0.01873885  0.58417856  0.41522993    -0.05800
H614        H  0.08784879  0.56600244  0.08059842    -0.06000
C615        C  0.50009291  0.56707668  0.44015842     0.87500
C616        C  0.43592684  0.00724264  0.05985880     0.88100
C617        C  0.06899465  0.56689496  0.05648572     0.88200
H618        H  0.06166630  0.97689463  0.41495119    -0.06000
O619        O  0.46049160  0.92759805  0.43617763    -0.75000
Mg620      Mg  0.08517027  0.59225990  0.47130357     1.58000
H621        H  0.41219358  0.93838704  0.41840241    -0.06000
C622        C  0.40652034  0.58622376  0.48217345     0.93200
O623        O  0.04412483  0.65751228  0.02397020    -0.82200
C624        C  0.08430958  0.67555825  0.01634721     0.93200
O625        O  0.34407994  0.89302661  0.02916104    -0.82200
Mg626      Mg  0.00643491  0.91628582  0.47446457     1.58200
O627        O  0.44546674  0.60443810  0.49424347    -0.80600
O628        O  0.11388764  0.95676314  0.02223708    -0.82300
O629        O  0.01937177  0.94203430  0.22493372    -0.87800
C630        C  0.43183257  0.93007545  0.30799526     0.88200
Mg631      Mg  0.08606334  0.98929095  0.22725066     1.58100
O632        O  0.42355860  0.97770382  0.22218875    -0.87600
O633        O  0.46518611  0.92410314  0.18527016    -0.74900
C634        C  0.08447723  0.66928894  0.27001698     0.93200
O635        O  0.03547754  0.96084517  0.31644551    -0.74700
O636        O  0.10662657  0.65086414  0.27696638    -0.82200
Mg637      Mg  0.49194155  0.90512992  0.27669116     1.58000
C638        C  0.40905316  0.58542237  0.23007313     0.93200
O639        O  0.44741805  0.84328976  0.24466612    -0.80500
H640        H  0.41243364  0.97436617  0.16532891    -0.05800
C641        C  0.99183151  0.55970160  0.30892852     0.88100
O642        O  0.07413011  0.53357361  0.18774157    -0.75000
O643        O  0.44313048  0.92388895  0.27583806    -0.87800
O644        O  0.39070677  0.54743389  0.24254202    -0.80600
C645        C  0.32136819  0.91248268  0.26540164     0.93300
C646        C  0.40971228  0.82400627  0.23003094     0.93100
Mg647      Mg  0.00218461  0.58727429  0.22434607     1.58000
O648        O  0.04622862  0.64941752  0.25655936    -0.80500
O649        O  0.45901073  0.53199913  0.18428753    -0.74700
O650        O  0.34261356  0.89506981  0.25203064    -0.80600
O651        O  0.04327843  0.88484200  0.27783893    -0.82300
O652        O  0.15318974  0.59787625  0.24622283    -0.80600
C653        C  0.43027617  0.49380712  0.18980998     0.87600
O654        O  0.05159604  0.56868694  0.22452409    -0.87700
O655        O  0.47572496  0.55026628  0.27627969    -0.87900
O656        O  0.03082921  0.56926039  0.31512620    -0.74900
Mg657      Mg  0.40682927  0.91230495  0.22248027     1.58000
O658        O  0.33882042  0.95204053  0.27293391    -0.82300
H659        H  0.02431629  0.93437569  0.16818075    -0.06000
O660        O  0.07211908  0.51522223  0.27872622    -0.87600
H661        H  0.08196222  0.51834905  0.33580509    -0.05800
H662        H  0.06141994  0.57922372  0.16780273    -0.06000
C663        C  0.06451637  0.99902775  0.31113872     0.87500
C664        C  0.50385356  0.93298157  0.19206403     0.88100
C665        C  0.06268876  0.56174113  0.19253870     0.88200
H666        H  0.47170348  0.55826954  0.33312860    -0.06000
O667        O  0.42095763  0.95849554  0.31351917    -0.75000
Mg668      Mg  0.08889813  0.58102044  0.27723188     1.58000
H669        H  0.43281974  0.91192960  0.33232242    -0.06000
C670        C  0.08380258  0.90505542  0.27191279     0.93200
O671        O  0.15701469  0.53998882  0.22822344    -0.82200
C672        C  0.17452148  0.57997427  0.23388788     0.93200
O673        O  0.38836749  0.84285453  0.22190783    -0.82200
Mg674      Mg  0.40912271  0.50264879  0.27420140     1.58200
O675        O  0.10307312  0.94323387  0.25960044    -0.80600
O676        O  0.44955847  0.60635503  0.22384802    -0.82300
C677        C  0.19734699  0.82429321  0.41878478    -0.11800
C678        C  0.16423093  0.82751536  0.43851632     0.05200
C679        C  0.12678221  0.81892448  0.41684798    -0.07100
C680        C  0.12836953  0.81842879  0.37643864    -0.07800
C681        C  0.16512717  0.82344572  0.35648130    -0.02400
C682        C  0.19750923  0.82060022  0.37835777     0.04500
N683        N  0.22825819  0.81017920  0.36100537     0.67000
H684        H  0.22178550  0.82147458  0.43503548     0.15900
H685        H  0.09958163  0.81196261  0.36052179     0.15600
N686        N  0.08596850  0.80759311  0.43475459     0.74700
O687        O  0.26553437  0.82468707  0.37541962    -0.38800
O688        O  0.21623778  0.78128526  0.33555928    -0.38700
O689        O  0.06372679  0.82396392  0.42283360    -0.39400
O690        O  0.06787420  0.77474098  0.45535745    -0.39500
C691        C  0.17125909  0.86373566  0.17020766    -0.11800
C692        C  0.16567838  0.82667892  0.18858818     0.05200
C693        C  0.17134843  0.79698270  0.16542537    -0.07100
C694        C  0.17080260  0.79971535  0.12508467    -0.07800
C695        C  0.16736638  0.83258340  0.10651048    -0.02400
C696        C  0.17322479  0.86779663  0.12983879     0.04500
N697        N  0.18433128  0.90877702  0.11410210     0.67000
H698        H  0.17701954  0.89116268  0.18748624     0.15900
H699        H  0.17601079  0.77722034  0.10814256     0.15600
N700        N  0.18197524  0.76658894  0.18162728     0.74700
O701        O  0.17161811  0.93213047  0.13077118    -0.38800
O702        O  0.21219331  0.92460006  0.08764878    -0.38700
O703        O  0.16580808  0.72956464  0.16733676    -0.39400
O704        O  0.21350059  0.77889140  0.20454000    -0.39500
C705        C  0.37158533  0.67789580  0.33091044    -0.11800
C706        C  0.33521473  0.67415625  0.31126913     0.05200
C707        C  0.30592265  0.68248366  0.33299285    -0.07100
C708        C  0.30749488  0.68260243  0.37343442    -0.07800
C709        C  0.33919393  0.67757623  0.39330977    -0.02400
C710        C  0.37490364  0.68119039  0.37138810     0.04500
N711        N  0.41577733  0.69159938  0.38876433     0.67000
H712        H  0.39902575  0.68106107  0.31453468     0.15900
H713        H  0.28473358  0.68866977  0.38947062     0.15600
N714        N  0.27657878  0.69400337  0.31508761     0.74700
O715        O  0.43953698  0.67826015  0.37361337    -0.38800
O716        O  0.43134169  0.71943254  0.41517111    -0.38700
O717        O  0.23832679  0.67851204  0.32746547    -0.39400
O718        O  0.29106177  0.72596876  0.29332643    -0.39500
C719        C  0.30025566  0.67343502  0.12381595    -0.11800
C720        C  0.33361830  0.67085620  0.14340619     0.05200
C721        C  0.37105216  0.67925169  0.12159456    -0.07100
C722        C  0.36958870  0.67985638  0.08118428    -0.07800
C723        C  0.33290686  0.67479136  0.06128295    -0.02400
C724        C  0.30047878  0.67748706  0.08349249     0.04500
N725        N  0.27077103  0.68918654  0.06665107     0.66400
H726        H  0.27536409  0.67582543  0.14018691     0.15900
H727        H  0.39855869  0.68650326  0.06518362     0.15600
N728        N  0.41173807  0.69023708  0.13939030     0.74700
O729        O  0.23220784  0.67220624  0.07850292    -0.38800
O730        O  0.28495583  0.72216921  0.04623566    -0.38700
O731        O  0.43400181  0.67403056  0.12659226    -0.39400
O732        O  0.42985744  0.72288905  0.16069914    -0.39500
C733        C  0.33286064  0.67288352  0.51693152     0.30500
C734        C  0.33626853  0.67419523  0.93744827     0.30500
C735        C  0.35637941  0.65091591  0.49794532    -0.05700
C736        C  0.28915286  0.64981842  0.49601067    -0.06500
C737        C  0.35480647  0.71661601  0.49819563    -0.06300
C738        C  0.35755345  0.65069966  0.95753846    -0.05700
C739        C  0.29032868  0.65110797  0.95559615    -0.06500
C740        C  0.35683301  0.71760609  0.95808790    -0.06400
C741        C  0.37447398  0.62448295  0.94684670    -0.31700
N742        N  0.38526056  0.61113420  0.97939998     0.14800
C743        C  0.37359288  0.62616231  0.51054332    -0.31700
H744        H  0.37626880  0.61819500  0.54008421     0.16700
C745        C  0.24781799  0.62731222  0.94311644    -0.30700
N746        N  0.22215719  0.61120847  0.47464156     0.13500
C747        C  0.24711477  0.62340932  0.50667349    -0.30700
C748        C  0.37946775  0.75990093  0.94762703    -0.31000
N749        N  0.39039016  0.78382642  0.48044984     0.14000
H750        H  0.38777993  0.77228760  0.91860288     0.16600
C751        C  0.37556438  0.75783367  0.51137531    -0.31000
H752        H  0.38048179  0.76825615  0.54128468     0.16600
H753        H  0.23510534  0.61359083  0.53564317     0.16600
H754        H  0.37808888  0.61514152  0.91783339     0.16700
H755        H  0.23626646  0.62128536  0.91359650     0.16600
C756        C  0.33200525  0.66795471  0.68758923     0.30500
C757        C  0.33320815  0.66957730  0.76708860     0.30500
C758        C  0.35408492  0.64478171  0.70703475    -0.05700
C759        C  0.35405071  0.71201584  0.70699828    -0.06500
C760        C  0.28709826  0.64590627  0.70778223    -0.06300
C761        C  0.35441509  0.64563922  0.74751654    -0.05700
C762        C  0.35552873  0.71236649  0.74701618    -0.06500
C763        C  0.28826540  0.64708460  0.74823662    -0.06400
C764        C  0.37239082  0.62130885  0.75945921    -0.31700
N765        N  0.38418064  0.60690626  0.72791095     0.14800
C766        C  0.37249876  0.62005187  0.69570699    -0.31700
H767        H  0.37646105  0.61151859  0.66654274     0.16700
C768        C  0.37798705  0.75383100  0.75905417    -0.30700
N769        N  0.38882493  0.77885901  0.72754294     0.13500
C770        C  0.37397355  0.75401592  0.69541504    -0.30700
C771        C  0.24697967  0.62120086  0.76121202    -0.31000
N772        N  0.22037737  0.60543544  0.73040580     0.14000
H773        H  0.23693791  0.61297311  0.79091467     0.16600
C774        C  0.24424124  0.61911776  0.69753915    -0.31000
H775        H  0.23139322  0.60942887  0.66866400     0.16600
H776        H  0.37780432  0.76557730  0.66610486     0.16600
H777        H  0.37692423  0.61443644  0.78893357     0.16700
H778        H  0.38479698  0.76517101  0.78866858     0.16600
C779        C  0.16492023  0.83165580  0.56222299     0.30500
C780        C  0.16602557  0.83125538  0.98272104     0.30500
C781        C  0.14151072  0.85322834  0.54225854    -0.05700
C782        C  0.20992284  0.85336431  0.54299632    -0.06500
C783        C  0.14276679  0.78731544  0.54223995    -0.06300
C784        C  0.14351920  0.85390307  0.00187586    -0.05700
C785        C  0.21031309  0.85421207  0.00268510    -0.06500
C786        C  0.14502202  0.78784450  0.00207918    -0.06400
C787        C  0.12686253  0.87903085  0.98933608    -0.31700
N788        N  0.11204476  0.89120427  0.02028206     0.14800
C789        C  0.11985777  0.87521003  0.55275068    -0.31700
H790        H  0.11061097  0.87958821  0.58154909     0.16700
C791        C  0.25257091  0.87896258  0.99152018    -0.30700
N792        N  0.27783575  0.89106145  0.52344266     0.13500
C793        C  0.25247895  0.87531336  0.55517920    -0.30700
C794        C  0.12546132  0.74661119  0.98900589    -0.31000
N795        N  0.10924076  0.72070842  0.01975797     0.14000
H796        H  0.12165901  0.73611898  0.95913468     0.16600
C797        C  0.11861663  0.74479688  0.55243109    -0.31000
H798        H  0.10828298  0.73214670  0.58113210     0.16600
H799        H  0.26400156  0.88029785  0.58469732     0.16600
H800        H  0.12627533  0.88868231  0.95992573     0.16700
H801        H  0.26455373  0.88762120  0.96230990     0.16600
C802        C  0.16312734  0.82481921  0.73288421     0.30500
C803        C  0.16528612  0.82561003  0.81233365     0.30500
C804        C  0.14072856  0.84718310  0.75327987    -0.05700
C805        C  0.14040528  0.78123275  0.75247303    -0.06500
C806        C  0.20779660  0.84659219  0.75157641    -0.06300
C807        C  0.14207609  0.84825392  0.79371406    -0.05700
C808        C  0.14260033  0.78145778  0.79269034    -0.06500
C809        C  0.20939514  0.84836051  0.79176750    -0.06400
C810        C  0.12163020  0.87103972  0.80566166    -0.31700
N811        N  0.10758874  0.88244230  0.77378593     0.14800
C812        C  0.11835845  0.86755814  0.74199422    -0.31700
H813        H  0.10973720  0.87102346  0.71279435     0.16700
C814        C  0.12127507  0.73949785  0.80444808    -0.30700
N815        N  0.10487455  0.71457000  0.77253941     0.13500
C816        C  0.11507116  0.73966787  0.74104116    -0.30700
C817        C  0.25208820  0.87535555  0.80161054    -0.31000
N818        N  0.27574612  0.88700401  0.76865742     0.14000
H819        H  0.26506406  0.88628528  0.83026573     0.16600
C820        C  0.24912581  0.87001855  0.73799868    -0.31000
H821        H  0.25907622  0.87551444  0.70801382     0.16600
H822        H  0.10504887  0.72809914  0.71188723     0.16600
H823        H  0.11753973  0.87914364  0.83499464     0.16700
H824        H  0.11781766  0.72802236  0.83377132     0.16600
O825        O  0.44478822  0.52234392  0.52705964    -0.87800
C826        C  0.43110471  0.93743398  0.94244735     0.88200
Mg827      Mg  0.49302002  0.58786955  0.52482152     1.58100
O828        O  0.48215507  0.93042098  0.52709529    -0.87600
O829        O  0.42691759  0.96919534  0.56635412    -0.74900
C830        C  0.17605393  0.58975848  0.97647444     0.93200
O831        O  0.46098908  0.53873555  0.93561351    -0.74700
O832        O  0.15641299  0.61081080  0.97004315    -0.82200
Mg833      Mg  0.40542111  0.99557857  0.97581512     1.58000
C834        C  0.09150725  0.91671746  0.51736267     0.93200
O835        O  0.34267745  0.95077058  0.50801943    -0.80500
H836        H  0.48124729  0.92100912  0.58401869    -0.05800
C837        C  0.06353917  0.49704952  0.93911782     0.88100
O838        O  0.03951002  0.57665912  0.56264409    -0.75000
O839        O  0.42482228  0.94782452  0.97498041    -0.87800
O840        O  0.05243485  0.89885502  0.50593489    -0.80600
C841        C  0.41538430  0.82892674  0.98357225     0.93300
C842        C  0.32388453  0.91320983  0.52165296     0.93100
Mg843      Mg  0.09441705  0.50833486  0.52279413     1.58000
O844        O  0.15675723  0.55197518  0.98954870    -0.80500
O845        O  0.03913640  0.96600723  0.56348104    -0.74700
O846        O  0.39739790  0.84925967  0.99761247    -0.80600
O847        O  0.38496093  0.54631878  0.97619513    -0.82300
O848        O  0.10251158  0.65537247  0.50223709    -0.80600
C849        C  0.99994445  0.93787629  0.55902695     0.87600
O850        O  0.07549575  0.55661053  0.52398070    -0.87700
O851        O  0.05477190  0.98177491  0.97186585    -0.87900
O852        O  0.07287110  0.53525535  0.93284732    -0.74900
Mg853      Mg  0.41503981  0.91235111  0.52798199     1.58000
O854        O  0.45543955  0.84684671  0.97562808    -0.82300
H855        H  0.43755251  0.52747115  0.58387293    -0.06000
O856        O  0.01785613  0.57447581  0.97209621    -0.87600
H857        H  0.01873988  0.58417851  0.91522902    -0.05800
H858        H  0.08785009  0.56600839  0.58059956    -0.06000
C859        C  0.50009288  0.56707573  0.94015705     0.87500
C860        C  0.43592908  0.00724659  0.55986062     0.88100
C861        C  0.06899564  0.56690008  0.55648633     0.88200
H862        H  0.06166596  0.97689478  0.91494767    -0.06000
O863        O  0.46049095  0.92759633  0.93617483    -0.75000
Mg864      Mg  0.08516973  0.59225765  0.97130378     1.58000
H865        H  0.41219253  0.93838552  0.91839889    -0.06000
C866        C  0.40651995  0.58622175  0.98217368     0.93200
O867        O  0.04412552  0.65751605  0.52396714    -0.82200
C868        C  0.08431025  0.67556191  0.51634411     0.93200
O869        O  0.34408152  0.89302952  0.52916441    -0.82200
Mg870      Mg  0.00643450  0.91628357  0.97445998     1.58200
O871        O  0.44546613  0.60443586  0.99424429    -0.80600
O872        O  0.11388818  0.95676648  0.52224131    -0.82300
O873        O  0.01936982  0.94202884  0.72493604    -0.87800
C874        C  0.43182914  0.93006889  0.80799587     0.88200
Mg875      Mg  0.08606154  0.98928531  0.72725302     1.58100
O876        O  0.42355593  0.97769767  0.72218906    -0.87600
O877        O  0.46518345  0.92409698  0.68527071    -0.74900
C878        C  0.08447558  0.66928250  0.77001652     0.93200
O879        O  0.03547531  0.96083963  0.81644772    -0.74700
O880        O  0.10662498  0.65085788  0.77696662    -0.82200
Mg881      Mg  0.49193815  0.90512356  0.77669180     1.58000
C882        C  0.40905316  0.58541722  0.73007243     0.93200
O883        O  0.44741502  0.84328379  0.74466628    -0.80500
H884        H  0.41243078  0.97435951  0.66532849    -0.05800
C885        C  0.99182969  0.55969541  0.80892806     0.88100
O886        O  0.07412953  0.53356710  0.68774220    -0.75000
O887        O  0.44312714  0.92388255  0.77583847    -0.87800
O888        O  0.39070664  0.54742880  0.74254148    -0.80600
C889        C  0.32136526  0.91247667  0.76540160     0.93300
C890        C  0.40970940  0.82400023  0.73003084     0.93100
Mg891      Mg  0.00218358  0.58726758  0.72434539     1.58000
O892        O  0.04622724  0.64941090  0.75655843    -0.80500
O893        O  0.45901077  0.53199352  0.68428731    -0.74700
O894        O  0.34261056  0.89506375  0.75203054    -0.80600
O895        O  0.04327615  0.88483633  0.77784092    -0.82300
O896        O  0.15318871  0.59786980  0.74622423    -0.80600
C897        C  0.43027583  0.49380134  0.68980953     0.87600
O898        O  0.05159507  0.56868038  0.72452429    -0.87700
O899        O  0.47572457  0.55026105  0.77627949    -0.87900
O900        O  0.03082732  0.56925425  0.81512618    -0.74900
Mg901      Mg  0.40682637  0.91229879  0.72248046     1.58000
O902        O  0.33881757  0.95203452  0.77293394    -0.82300
H903        H  0.02431505  0.93437013  0.66818255    -0.06000
O904        O  0.07211734  0.51521580  0.77872712    -0.87600
H905        H  0.08195958  0.51834234  0.83580620    -0.05800
H906        H  0.06141981  0.57921742  0.66780299    -0.06000
C907        C  0.06451410  0.99902210  0.81114088     0.87500
C908        C  0.50385085  0.93297546  0.69206485     0.88100
C909        C  0.06268824  0.56173467  0.69253909     0.88200
H910        H  0.47170295  0.55826489  0.83312803    -0.06000
O911        O  0.42095446  0.95848935  0.81351954    -0.75000
Mg912      Mg  0.08889661  0.58101411  0.77723252     1.58000
H913        H  0.43281601  0.91192363  0.83232206    -0.06000
C914        C  0.08380031  0.90504962  0.77191490     0.93200
O915        O  0.15701351  0.53998224  0.72822506    -0.82200
C916        C  0.17452042  0.57996771  0.73388946     0.93200
O917        O  0.38836445  0.84284833  0.72190773    -0.82200
Mg918      Mg  0.40912229  0.50264358  0.77420111     1.58200
O919        O  0.10307110  0.94322822  0.75960296    -0.80600
O920        O  0.44955847  0.60634968  0.72384723    -0.82300
C921        C  0.19734439  0.82428641  0.91878469    -0.11800
C922        C  0.16422818  0.82750862  0.93851597     0.05200
C923        C  0.12677916  0.81891678  0.91684781    -0.07100
C924        C  0.12836626  0.81842077  0.87643848    -0.07800
C925        C  0.16512430  0.82343842  0.85648129    -0.02400
C926        C  0.19750652  0.82059326  0.87835767     0.04500
N927        N  0.22825576  0.81017256  0.86100529     0.67000
H928        H  0.22178272  0.82146820  0.93503527     0.15900
H929        H  0.09957856  0.81195423  0.86052180     0.15600
N930        N  0.08596536  0.80758490  0.93475454     0.74700
O931        O  0.26553176  0.82468023  0.87541984    -0.38800
O932        O  0.21623571  0.78127912  0.83555874    -0.38700
O933        O  0.06372320  0.82395525  0.92283365    -0.39400
O934        O  0.06787139  0.77473253  0.95535714    -0.39500
C935        C  0.17125775  0.86373246  0.67020942    -0.11800
C936        C  0.16567552  0.82667433  0.68858846     0.05200
C937        C  0.17134526  0.79697868  0.66542459    -0.07100
C938        C  0.17080115  0.79971356  0.62508394    -0.07800
C939        C  0.16736626  0.83258308  0.60651107    -0.02400
C940        C  0.17322463  0.86779533  0.62984068     0.04500
N941        N  0.18433223  0.90877670  0.61410561     0.67000
H942        H  0.17701829  0.89115847  0.68748878     0.15900
H943        H  0.17600956  0.77721962  0.60814134     0.15600
N944        N  0.18197021  0.76658311  0.68162530     0.74700
O945        O  0.17161939  0.93212990  0.63077561    -0.38800
O946        O  0.21219490  0.92460055  0.58765286    -0.38700
O947        O  0.16580270  0.72955959  0.66733301    -0.39400
O948        O  0.21349424  0.77888331  0.70453926    -0.39500
C949        C  0.37158479  0.67789043  0.83091039    -0.11800
C950        C  0.33521431  0.67415095  0.81126894     0.05200
C951        C  0.30592276  0.68247956  0.83299214    -0.07100
C952        C  0.30749481  0.68259892  0.87343366    -0.07800
C953        C  0.33919359  0.67757260  0.89330930    -0.02400
C954        C  0.37490326  0.68118616  0.87138797     0.04500
N955        N  0.41577711  0.69159587  0.88876433     0.67000
H956        H  0.39902502  0.68105517  0.81453485     0.15900
H957        H  0.28473373  0.68866677  0.88946949     0.15600
N958        N  0.27657964  0.69399991  0.81508634     0.74700
O959        O  0.43953702  0.67825669  0.87361383    -0.38800
O960        O  0.43134132  0.71942960  0.91517065    -0.38700
O961        O  0.23832723  0.67850825  0.82746317    -0.39400
O962        O  0.29106380  0.72596678  0.79332694    -0.39500
C963        C  0.30025368  0.67342955  0.62381687    -0.11800
C964        C  0.33361665  0.67085072  0.64340649     0.05200
C965        C  0.37105114  0.67924848  0.62159482    -0.07100
C966        C  0.36958845  0.67985602  0.58118466    -0.07800
C967        C  0.33290652  0.67479108  0.56128359    -0.02400
C968        C  0.30047732  0.67748407  0.58349372     0.04500
N969        N  0.27076897  0.68918349  0.56665349     0.66400
H970        H  0.27536148  0.67581837  0.64018831     0.15900
H971        H  0.39855892  0.68650448  0.56518393     0.15600
N972        N  0.41173681  0.69023302  0.63939057     0.74700
O973        O  0.23220587  0.67220247  0.57850573    -0.38800
O974        O  0.28495298  0.72216623  0.54623827    -0.38700
O975        O  0.43400042  0.67402667  0.62659181    -0.39400
O976        O  0.42985627  0.72288437  0.66070016    -0.39500
C977        C  0.83286093  0.17288537  0.01693677     0.30500
C978        C  0.83627070  0.17420523  0.43745459     0.30500
C979        C  0.85638091  0.15091921  0.99794997    -0.05700
C980        C  0.78915315  0.14981939  0.99601569    -0.06500
C981        C  0.85480572  0.21661831  0.99820145    -0.06300
C982        C  0.85755685  0.15070992  0.45754319    -0.05700
C983        C  0.79033057  0.15111498  0.45560161    -0.06500
C984        C  0.85683305  0.21761472  0.45809663    -0.06400
C985        C  0.87447691  0.12449324  0.44684992    -0.31700
N986        N  0.88526101  0.11114089  0.47940224     0.14800
C987        C  0.87359321  0.12616423  0.01054706    -0.31700
H988        H  0.87626824  0.11819552  0.04008741     0.16700
C989        C  0.74782067  0.12731670  0.44312083    -0.30700
N990        N  0.72215834  0.11120506  0.97464540     0.13500
C991        C  0.74711526  0.12340784  0.00667781    -0.30700
C992        C  0.87946783  0.25991015  0.44763792    -0.31000
N993        N  0.89038919  0.28382896  0.98045600     0.14000
H994        H  0.88778107  0.27229852  0.41861422     0.16600
C995        C  0.87556381  0.25783598  0.01138152    -0.31000
H996        H  0.88048173  0.26825812  0.04129054     0.16600
H997        H  0.73510548  0.11358892  0.03564773     0.16600
H998        H  0.87809259  0.11515360  0.41783548     0.16700
H999        H  0.73626993  0.12129086  0.41360042     0.16600
C1000       C  0.83200756  0.16796229  0.18759515     0.30500
C1001       C  0.83321086  0.16958938  0.26709468     0.30500
C1002       C  0.85408893  0.14479204  0.20704258    -0.05700
C1003       C  0.85405121  0.21202451  0.20700211    -0.06500
C1004       C  0.78710093  0.14591330  0.20778836    -0.06300
C1005       C  0.85441959  0.14565197  0.24752432    -0.05700
C1006       C  0.85552911  0.21237765  0.24702015    -0.06500
C1007       C  0.78826807  0.14709367  0.24824279    -0.06400
C1008       C  0.87239478  0.12132159  0.25946866    -0.31700
N1009       N  0.88418331  0.10691635  0.22792137     0.14800
C1010       C  0.87250141  0.12006052  0.19571649    -0.31700
H1011       H  0.87646235  0.11152485  0.16655299     0.16700
C1012       C  0.87798482  0.25384317  0.25905595    -0.30700
N1013       N  0.88882172  0.27886907  0.22754322     0.13500
C1014       C  0.87397226  0.25402375  0.19541651    -0.30700
C1015       C  0.74698270  0.12120818  0.26121855    -0.31000
N1016       N  0.72038091  0.10544000  0.23041190     0.14000
H1017       H  0.73694128  0.11298148  0.29092015     0.16600
C1018       C  0.74424468  0.11912235  0.19754559    -0.31000
H1019       H  0.73139670  0.10943159  0.16866952     0.16600
H1020       H  0.87780333  0.26558308  0.16610551     0.16600
H1021       H  0.87692815  0.11445051  0.28894361     0.16700
H1022       H  0.88479438  0.26518520  0.28866980     0.16600
C1023       C  0.66491798  0.33164953  0.06222058     0.30500
C1024       C  0.66602721  0.33125505  0.48271969     0.30500
C1025       C  0.64150746  0.35322012  0.04225469    -0.05700
C1026       C  0.70992055  0.35335845  0.04299389    -0.06500
C1027       C  0.64276563  0.28730821  0.04223904    -0.06300
C1028       C  0.64352010  0.35390168  0.50187511    -0.05700
C1029       C  0.71031433  0.35421155  0.50268484    -0.06500
C1030       C  0.64502347  0.28784328  0.50207664    -0.06400
C1031       C  0.62686404  0.37903020  0.48933567    -0.31700
N1032       N  0.61204555  0.39120244  0.52028221     0.14800
C1033       C  0.61985466  0.37520233  0.05274549    -0.31700
H1034       H  0.61060803  0.37958178  0.08154310     0.16700
C1035       C  0.75257239  0.37896588  0.49152122    -0.30700
N1036       N  0.77783312  0.39105987  0.02344074     0.13500
C1037       C  0.75247630  0.37531095  0.05517707    -0.30700
C1038       C  0.62546296  0.24661010  0.48900234    -0.31000
N1039       N  0.60924165  0.22070654  0.51975411     0.14000
H1040       H  0.62166130  0.23611882  0.45913156     0.16600
C1041       C  0.61861583  0.24478987  0.05243135    -0.31000
H1042       H  0.60828237  0.23214071  0.08113289     0.16600
H1043       H  0.76399858  0.38029756  0.08469537     0.16600
H1044       H  0.62627764  0.38868251  0.45992658     0.16700
H1045       H  0.76455559  0.38762653  0.46231292     0.16600
C1046       C  0.66312765  0.32482211  0.23288209     0.30500
C1047       C  0.66528592  0.32561377  0.31233160     0.30500
C1048       C  0.64072638  0.34718399  0.25327713    -0.05700
C1049       C  0.64040776  0.28123584  0.25247123    -0.06500
C1050       C  0.70779673  0.34659794  0.25157456    -0.06300
C1051       C  0.64207352  0.34825510  0.29371146    -0.05700
C1052       C  0.64260248  0.28146126  0.29268852    -0.06500
C1053       C  0.70939480  0.34836667  0.29176562    -0.06400
C1054       C  0.62162704  0.37104050  0.30565850    -0.31700
N1055       N  0.60758584  0.38244281  0.27378241     0.14800
C1056       C  0.61835611  0.36755870  0.24199093    -0.31700
H1057       H  0.60973567  0.37102435  0.21279100     0.16700
C1058       C  0.62127755  0.23950129  0.30444650    -0.30700
N1059       N  0.60487758  0.21457314  0.27253776     0.13500
C1060       C  0.61507431  0.23967084  0.24103951    -0.30700
C1061       C  0.75208700  0.37536484  0.30160902    -0.31000
N1062       N  0.77574526  0.38701489  0.26865621     0.14000
H1063       H  0.76506211  0.38629519  0.33026441     0.16600
C1064       C  0.74912574  0.37002727  0.23799718    -0.31000
H1065       H  0.75907644  0.37552323  0.20801259     0.16600
H1066       H  0.60505219  0.22810183  0.21188518     0.16600
H1067       H  0.61753668  0.37914492  0.33499131     0.16700
H1068       H  0.61781948  0.22802615  0.33376954     0.16600
O1069       O  0.94478833  0.02234620  0.02706053    -0.87800
C1070       C  0.93110440  0.43743979  0.44245596     0.88200
Mg1071     Mg  0.99302028  0.08787179  0.02482090     1.58100
O1072       O  0.98215417  0.43042515  0.02709871    -0.87600
O1073       O  0.92691449  0.46919808  0.06635686    -0.74900
C1074       C  0.67605607  0.08975708  0.47647663     0.93200
O1075       O  0.96098644  0.03873888  0.43561778    -0.74700
O1076       O  0.65641429  0.11080819  0.47004346    -0.82200
Mg1077     Mg  0.90542068  0.49558621  0.47582033     1.58000
C1078       C  0.59150600  0.41670978  0.01735531     0.93200
O1079       O  0.84267402  0.45077137  0.00801875    -0.80500
H1080       H  0.98124876  0.42101587  0.08402106    -0.05800
C1081       C  0.56354284  0.99704720  0.43911610     0.88100
O1082       O  0.53950862  0.07664852  0.06264180    -0.75000
O1083       O  0.92482274  0.44783245  0.47498815    -0.87800
O1084       O  0.55243416  0.39884832  0.00592628    -0.80600
C1085       C  0.91538478  0.32893417  0.48358534     0.93300
C1086       C  0.82388199  0.41321047  0.02165218     0.93100
Mg1087     Mg  0.59441566  0.00832467  0.02278975     1.58000
O1088       O  0.65675988  0.05197382  0.48955116    -0.80500
O1089       O  0.53913407  0.46599629  0.06347399    -0.74700
O1090       O  0.89739887  0.34926791  0.49762468    -0.80600
O1091       O  0.88495933  0.04632429  0.47620064    -0.82300
O1092       O  0.60251092  0.15536414  0.00223882    -0.80600
C1093       C  0.49994204  0.43786581  0.05901864     0.87600
O1094       O  0.57549400  0.05660022  0.02397784    -0.87700
O1095       O  0.55477290  0.48177291  0.47186648    -0.87900
O1096       O  0.57287437  0.03525310  0.43284583    -0.74900
Mg1097     Mg  0.91503846  0.41235446  0.02798490     1.58000
O1098       O  0.95544003  0.34685365  0.47564117    -0.82300
H1099       H  0.93755351  0.02747487  0.08387334    -0.06000
O1100       O  0.51785751  0.07447273  0.47209331    -0.87600
H1101       H  0.51874050  0.08417375  0.41522664    -0.05800
H1102       H  0.58784768  0.06599614  0.08059679    -0.06000
C1103       C  0.00009069  0.06707820  0.44015933     0.87500
C1104       C  0.93592570  0.50724917  0.05986293     0.88100
C1105       C  0.56899378  0.06688888  0.05648381     0.88200
H1106       H  0.56166731  0.47689286  0.41494749    -0.06000
O1107       O  0.96048984  0.42760109  0.43618414    -0.75000
Mg1108     Mg  0.58517129  0.09225484  0.47130212     1.58000
H1109       H  0.91219112  0.43839009  0.41840640    -0.06000
C1110       C  0.90651990  0.08622792  0.48217514     0.93200
O1111       O  0.54412438  0.15750750  0.02396764    -0.82200
C1112       C  0.58430940  0.17555349  0.01634561     0.93200
O1113       O  0.84408030  0.39303194  0.02916548    -0.82200
Mg1114     Mg  0.50643608  0.41628170  0.47445928     1.58200
O1115       O  0.94546728  0.10444251  0.49424241    -0.80600
O1116       O  0.61388744  0.45675859  0.02223469    -0.82300
O1117       O  0.51936897  0.44203064  0.22493037    -0.87800
C1118       C  0.93182886  0.43007788  0.30799276     0.88200
Mg1119     Mg  0.58606091  0.48928717  0.22724832     1.58100
O1120       O  0.92355440  0.47770901  0.22218811    -0.87600
O1121       O  0.96517989  0.42410778  0.18526623    -0.74900
C1122       C  0.58447849  0.16928557  0.27001524     0.93200
O1123       O  0.53547294  0.46084143  0.31644273    -0.74700
O1124       O  0.60662730  0.15086083  0.27696740    -0.82200
Mg1125     Mg  0.99193817  0.40513438  0.27668567     1.58000
C1126       C  0.90905530  0.08542678  0.23008353     0.93200
O1127       O  0.94741369  0.34329452  0.24466136    -0.80500
H1128       H  0.91242977  0.47437418  0.16532893    -0.05800
C1129       C  0.49183226  0.05969971  0.30892777     0.88100
O1130       O  0.57413472  0.03356777  0.18774626    -0.75000
O1131       O  0.94312717  0.42389351  0.27583489    -0.87800
O1132       O  0.89070851  0.04743821  0.24255241    -0.80600
C1133       C  0.82136442  0.41248781  0.26540106     0.93300
C1134       C  0.90970692  0.32401055  0.23002839     0.93100
Mg1135     Mg  0.50218719  0.08726921  0.22434415     1.58000
O1136       O  0.54623075  0.14941390  0.25655571    -0.80500
O1137       O  0.95901143  0.03200369  0.18429412    -0.74700
O1138       O  0.84260975  0.39507518  0.25202952    -0.80600
O1139       O  0.54327393  0.38483810  0.27783678    -0.82300
O1140       O  0.65319137  0.09787278  0.24622818    -0.80600
C1141       C  0.93027691  0.99381163  0.18981660     0.87600
O1142       O  0.55159893  0.06868216  0.22452551    -0.87700
O1143       O  0.97572758  0.05026909  0.27628695    -0.87900
O1144       O  0.53082950  0.06925829  0.31512728    -0.74900
Mg1145     Mg  0.90682445  0.41230979  0.22247819     1.58000
O1146       O  0.83881678  0.45204546  0.27293445    -0.82300
H1147       H  0.52431417  0.43437052  0.16817735    -0.06000
O1148       O  0.57212030  0.01521875  0.27873152    -0.87600
H1149       H  0.58196231  0.01834673  0.33581073    -0.05800
H1150       H  0.56142427  0.07921648  0.16780388    -0.06000
C1151       C  0.56451192  0.49902381  0.31113573     0.87500
C1152       C  0.00384760  0.43298651  0.19205883     0.88100
C1153       C  0.56269268  0.06173508  0.19254111     0.88200
H1154       H  0.97170945  0.05827202  0.33313572    -0.06000
O1155       O  0.92095376  0.45849764  0.31351839    -0.75000
Mg1156     Mg  0.58889911  0.08101713  0.27723497     1.58000
H1157       H  0.93281568  0.41193081  0.33231838    -0.06000
C1158       C  0.58379807  0.40505078  0.27191079     0.93200
O1159       O  0.65701852  0.03998558  0.22823237    -0.82200
C1160       C  0.67452419  0.07997120  0.23389538     0.93200
O1161       O  0.88836178  0.34285869  0.22190598    -0.82200
Mg1162     Mg  0.90912481  0.00265130  0.27420913     1.58200
O1163       O  0.60306938  0.44322927  0.25959853    -0.80600
O1164       O  0.94956041  0.10635863  0.22385743    -0.82300
C1165       C  0.69734751  0.32429168  0.41878200    -0.11800
C1166       C  0.66423005  0.32751032  0.43851447     0.05200
C1167       C  0.62678041  0.31891792  0.41684681    -0.07100
C1168       C  0.62836722  0.31842367  0.37643741    -0.07800
C1169       C  0.66512518  0.32344267  0.35647931    -0.02400
C1170       C  0.69750895  0.32059912  0.37835488     0.04500
N1171       N  0.72825940  0.31018089  0.36100137     0.67000
H1172       H  0.72178775  0.32147539  0.43503190     0.15900
H1173       H  0.59957891  0.31195694  0.36052118     0.15600
N1174       N  0.58596648  0.30758406  0.43475417     0.74700
O1175       O  0.76553652  0.32469165  0.37541429    -0.38800
O1176       O  0.71624000  0.28128686  0.33555545    -0.38700
O1177       O  0.56372415  0.32395525  0.42283574    -0.39400
O1178       O  0.56787235  0.27472929  0.45535369    -0.39500
C1179       C  0.67125554  0.36373183  0.17020549    -0.11800
C1180       C  0.66567585  0.32667565  0.18858632     0.05200
C1181       C  0.67134746  0.29698005  0.16542400    -0.07100
C1182       C  0.67080135  0.29971195  0.12508324    -0.07800
C1183       C  0.66736440  0.33257938  0.10650865    -0.02400
C1184       C  0.67322200  0.36779264  0.12983658     0.04500
N1185       N  0.68432849  0.40877296  0.11409963     0.67000
H1186       H  0.67701484  0.39115852  0.18748383     0.15900
H1187       H  0.67601017  0.27721728  0.10814152     0.15600
N1188       N  0.68197660  0.26658813  0.18162640     0.74700
O1189       O  0.67161511  0.43212640  0.13076836    -0.38800
O1190       O  0.71219070  0.42459601  0.08764645    -0.38700
O1191       O  0.66581178  0.22956391  0.16733607    -0.39400
O1192       O  0.71350174  0.27889246  0.20453965    -0.39500
C1193       C  0.87158905  0.17790666  0.33091650    -0.11800
C1194       C  0.83521747  0.17416467  0.31127507     0.05200
C1195       C  0.80592384  0.18249002  0.33299854    -0.07100
C1196       C  0.80749611  0.18260922  0.37344017    -0.07800
C1197       C  0.83919638  0.17758508  0.39331563    -0.02400
C1198       C  0.87490706  0.18120137  0.37139420     0.04500
N1199       N  0.91578094  0.19161168  0.38877082     0.67000
H1200       H  0.89902981  0.18107286  0.31454087     0.15900
H1201       H  0.78473352  0.18867457  0.38947625     0.15600
N1202       N  0.77657766  0.19400647  0.31509297     0.74700
O1203       O  0.93954205  0.17827424  0.37361980    -0.38800
O1204       O  0.93134380  0.21944417  0.41517827    -0.38700
O1205       O  0.73832572  0.17851342  0.32747137    -0.39400
O1206       O  0.79105828  0.22597079  0.29333063    -0.39500
C1207       C  0.80025490  0.17343374  0.12382216    -0.11800
C1208       C  0.83361802  0.17085548  0.14341216     0.05200
C1209       C  0.87105181  0.17925128  0.12160033    -0.07100
C1210       C  0.86958841  0.17985675  0.08119005    -0.07800
C1211       C  0.83290664  0.17479227  0.06128887    -0.02400
C1212       C  0.80047794  0.17748636  0.08349876     0.04500
N1213       N  0.77076916  0.18918467  0.06665774     0.66400
H1214       H  0.77536303  0.17582325  0.14019325     0.15900
H1215       H  0.89855848  0.18650415  0.06518938     0.15600
N1216       N  0.91173777  0.19023661  0.13939593     0.74700
O1217       O  0.73220565  0.17220226  0.07850897    -0.38800
O1218       O  0.78495307  0.22216832  0.04624376    -0.38700
O1219       O  0.93400175  0.17403049  0.12659757    -0.39400
O1220       O  0.92985639  0.22288742  0.16070629    -0.39500
C1221       C  0.83286097  0.17288696  0.51693728     0.30500
C1222       C  0.83626955  0.17420145  0.93745414     0.30500
C1223       C  0.85638133  0.15092152  0.49794997    -0.05700
C1224       C  0.78915358  0.14982131  0.49601566    -0.06500
C1225       C  0.85480577  0.21662050  0.49820297    -0.06300
C1226       C  0.85755573  0.15070651  0.95754318    -0.05700
C1227       C  0.79032969  0.15111187  0.95560160    -0.06500
C1228       C  0.85683234  0.21761142  0.95809512    -0.06400
C1229       C  0.87447579  0.12448985  0.94685025    -0.31700
N1230       N  0.88526091  0.11113868  0.97940263     0.14800
C1231       C  0.87359282  0.12616579  0.51054669    -0.31700
H1232       H  0.87626702  0.11819604  0.54008715     0.16700
C1233       C  0.74781969  0.12731351  0.94312109    -0.30700
N1234       N  0.72215910  0.11120698  0.47464473     0.13500
C1235       C  0.74711573  0.12340882  0.50667742    -0.30700
C1236       C  0.87946700  0.25990653  0.94763530    -0.31000
N1237       N  0.89038937  0.28383177  0.48045906     0.14000
H1238       H  0.88777956  0.27229401  0.91861156     0.16600
C1239       C  0.87556345  0.25783790  0.51138407    -0.31000
H1240       H  0.88048085  0.26825910  0.54129302     0.16600
H1241       H  0.73510599  0.11358885  0.53564651     0.16600
H1242       H  0.87809099  0.11514948  0.91783575     0.16700
H1243       H  0.73626887  0.12128686  0.91360112     0.16600
C1244       C  0.83200480  0.16795555  0.68759537     0.30500
C1245       C  0.83320858  0.16958303  0.76709476     0.30500
C1246       C  0.85408634  0.14478536  0.70704273    -0.05700
C1247       C  0.85404857  0.21201784  0.70700219    -0.06500
C1248       C  0.78709823  0.14590659  0.70778878    -0.06300
C1249       C  0.85441715  0.14564549  0.74752447    -0.05700
C1250       C  0.85552681  0.21237116  0.74702015    -0.06500
C1251       C  0.78826565  0.14708724  0.74824319    -0.06400
C1252       C  0.87239263  0.12131540  0.75946907    -0.31700
N1253       N  0.88418131  0.10691024  0.72792168     0.14800
C1254       C  0.87249916  0.12005412  0.69571691    -0.31700
H1255       H  0.87646029  0.11151831  0.66655282     0.16700
C1256       C  0.87798309  0.25383665  0.75905572    -0.30700
N1257       N  0.88881999  0.27886248  0.72754307     0.13500
C1258       C  0.87396991  0.25401708  0.69541635    -0.30700
C1259       C  0.74698046  0.12120188  0.76121906    -0.31000
N1260       N  0.72037838  0.10543324  0.73041292     0.14000
H1261       H  0.73693904  0.11297533  0.79092176     0.16600
C1262       C  0.74424185  0.11911530  0.69754617    -0.31000
H1263       H  0.73139395  0.10942446  0.66867094     0.16600
H1264       H  0.87780083  0.26557619  0.66610568     0.16600
H1265       H  0.87692608  0.11444466  0.78894349     0.16700
H1266       H  0.88479315  0.26517889  0.78866991     0.16600
C1267       C  0.66491893  0.33165074  0.56222111     0.30500
C1268       C  0.66602547  0.33125104  0.98271919     0.30500
C1269       C  0.64150883  0.35322227  0.54225617    -0.05700
C1270       C  0.70992165  0.35336014  0.54299486    -0.06500
C1271       C  0.64276663  0.28731023  0.54223831    -0.06300
C1272       C  0.64351839  0.35389818  0.00187362    -0.05700
C1273       C  0.71031278  0.35420834  0.00268386    -0.06500
C1274       C  0.64502206  0.28784001  0.00207735    -0.06400
C1275       C  0.62686235  0.37902634  0.98933339    -0.31700
N1276       N  0.61204411  0.39119962  0.02027917     0.14800
C1277       C  0.61985604  0.37520419  0.55274772    -0.31700
H1278       H  0.61060906  0.37958281  0.58154630     0.16700
C1279       C  0.75257073  0.37896176  0.99151969    -0.30700
N1280       N  0.77783430  0.39106297  0.52344271     0.13500
C1281       C  0.75247713  0.37531247  0.55517847    -0.30700
C1282       C  0.62546150  0.24660652  0.98900395    -0.31000
N1283       N  0.60924055  0.22070378  0.01975634     0.14000
H1284       H  0.62165959  0.23611455  0.95913369     0.16600
C1285       C  0.61861655  0.24479169  0.55242970    -0.31000
H1286       H  0.60828270  0.23214183  0.58113063     0.16600
H1287       H  0.76399916  0.38029817  0.58469729     0.16600
H1288       H  0.62627596  0.38867808  0.95992329     0.16700
H1289       H  0.76455374  0.38762119  0.96231070     0.16600
C1290       C  0.66312601  0.32481638  0.73288224     0.30500
C1291       C  0.66528442  0.32560742  0.81233165     0.30500
C1292       C  0.64072487  0.34717814  0.75327763    -0.05700
C1293       C  0.64040601  0.28122986  0.75247104    -0.06500
C1294       C  0.70779514  0.34659187  0.75157464    -0.06300
C1295       C  0.64207219  0.34824905  0.79371188    -0.05700
C1296       C  0.64260084  0.28145507  0.79268834    -0.06500
C1297       C  0.70939333  0.34836026  0.79176570    -0.06400
C1298       C  0.62162586  0.37103450  0.80565936    -0.31700
N1299       N  0.60758450  0.38243690  0.77378333     0.14800
C1300       C  0.61835459  0.36755289  0.74199183    -0.31700
H1301       H  0.60973401  0.37101878  0.71279152     0.16700
C1302       C  0.62127586  0.23949516  0.80444615    -0.30700
N1303       N  0.60487572  0.21456706  0.77253760     0.13500
C1304       C  0.61507238  0.23966479  0.74103916    -0.30700
C1305       C  0.75208569  0.37535804  0.80160911    -0.31000
N1306       N  0.77574380  0.38700827  0.76865611     0.14000
H1307       H  0.76506085  0.38628793  0.83026426     0.16600
C1308       C  0.74912410  0.37002103  0.73799726    -0.31000
H1309       H  0.75907480  0.37551724  0.70801226     0.16600
H1310       H  0.60505024  0.22809603  0.71188545     0.16600
H1311       H  0.61753573  0.37913875  0.83499183     0.16700
H1312       H  0.61781782  0.22801982  0.83376963     0.16600
O1313       O  0.94478871  0.02234964  0.52706289    -0.87800
C1314       C  0.93110334  0.43743724  0.94245281     0.88200
Mg1315     Mg  0.99302061  0.08787515  0.52482125     1.58100
O1316       O  0.98215521  0.43042866  0.52710215    -0.87600
O1317       O  0.92691627  0.46920312  0.56635887    -0.74900
C1318       C  0.67605530  0.08975509  0.97647717     0.93200
O1319       O  0.96098683  0.03873760  0.93561591    -0.74700
O1320       O  0.65641353  0.11080631  0.97004468    -0.82200
Mg1321     Mg  0.90542020  0.49558343  0.97581882     1.58000
C1322       C  0.59150678  0.41671208  0.51735903     0.93200
O1323       O  0.84267496  0.45077480  0.50802099    -0.80500
H1324       H  0.98124910  0.42101993  0.58402571    -0.05800
C1325       C  0.56354216  0.99704613  0.93911468     0.88100
O1326       O  0.53951055  0.07665294  0.56264167    -0.75000
O1327       O  0.92482187  0.44782947  0.97498543    -0.87800
O1328       O  0.55243491  0.39885026  0.50593006    -0.80600
C1329       C  0.91538420  0.32893137  0.98358139     0.93300
C1330       C  0.82388315  0.41321403  0.52165466     0.93100
Mg1331     Mg  0.59441703  0.00832783  0.52279110     1.58000
O1332       O  0.65675900  0.05197133  0.98955061    -0.80500
O1333       O  0.53913444  0.46599922  0.56347736    -0.74700
O1334       O  0.89739799  0.34926491  0.99762053    -0.80600
O1335       O  0.88495965  0.04632239  0.97619912    -0.82300
O1336       O  0.60251195  0.15536682  0.50223667    -0.80600
C1337       C  0.49994258  0.43786847  0.55902198     0.87600
O1338       O  0.57549546  0.05660353  0.52397823    -0.87700
O1339       O  0.55477246  0.48177140  0.97186317    -0.87900
O1340       O  0.57287387  0.03525211  0.93284514    -0.74900
Mg1341     Mg  0.91503966  0.41235828  0.52798816     1.58000
O1342       O  0.95543944  0.34685100  0.97563726    -0.82300
H1343       H  0.93755508  0.02747989  0.58387616    -0.06000
O1344       O  0.51785687  0.07447108  0.97209337    -0.87600
H1345       H  0.51874053  0.08417306  0.91522722    -0.05800
H1346       H  0.58784957  0.06600118  0.58059657    -0.06000
C1347       C  0.00009109  0.06707724  0.94015781     0.87500
C1348       C  0.93592726  0.50725375  0.55986391     0.88100
C1349       C  0.56899575  0.06689314  0.55648408     0.88200
H1350       H  0.56166671  0.47689258  0.91494398    -0.06000
O1351       O  0.96048902  0.42759871  0.93618079    -0.75000
Mg1352     Mg  0.58517058  0.09225301  0.97130272     1.58000
H1353       H  0.91219063  0.43838773  0.91840428    -0.06000
C1354       C  0.90651982  0.08622574  0.98217538     0.93200
O1355       O  0.54412549  0.15751045  0.52396532    -0.82200
C1356       C  0.58431041  0.17555635  0.51634304     0.93200
O1357       O  0.84408168  0.39303586  0.52916856    -0.82200
Mg1358     Mg  0.50643553  0.41628009  0.97445571     1.58200
O1359       O  0.94546685  0.10443997  0.99424354    -0.80600
O1360       O  0.61388784  0.45676091  0.52223860    -0.82300
O1361       O  0.51936839  0.44202515  0.72493114    -0.87800
C1362       C  0.93182704  0.43007145  0.80799254     0.88200
Mg1363     Mg  0.58606041  0.48928150  0.72724959     1.58100
O1364       O  0.92355307  0.47770238  0.72218766    -0.87600
O1365       O  0.96517880  0.42410120  0.68526637    -0.74900
C1366       C  0.58447641  0.16927947  0.77001520     0.93200
O1367       O  0.53547157  0.46083573  0.81644345    -0.74700
O1368       O  0.60662501  0.15085459  0.77696780    -0.82200
Mg1369     Mg  0.99193630  0.40512767  0.77668591     1.58000
C1370       C  0.90905351  0.08542089  0.73008422     0.93200
O1371       O  0.94741205  0.34328787  0.74466124    -0.80500
H1372       H  0.91242839  0.47436658  0.66532750    -0.05800
C1373       C  0.49182939  0.05969376  0.80892841     0.88100
O1374       O  0.57413248  0.03356143  0.68774720    -0.75000
O1375       O  0.94312535  0.42388679  0.77583483    -0.87800
O1376       O  0.89070691  0.04743252  0.74255354    -0.80600
C1377       C  0.82136294  0.41248126  0.76540076     0.93300
C1378       C  0.90970530  0.32400395  0.73002815     0.93100
Mg1379     Mg  0.50218496  0.08726298  0.72434449     1.58000
O1380       O  0.54622868  0.14940784  0.75655572    -0.80500
O1381       O  0.95900972  0.03199766  0.68429585    -0.74700
O1382       O  0.84260827  0.39506862  0.75202921    -0.80600
O1383       O  0.54327265  0.38483227  0.77783745    -0.82300
O1384       O  0.65318891  0.09786613  0.74622944    -0.80600
C1385       C  0.93027508  0.99380557  0.68981842     0.87600
O1386       O  0.55159653  0.06867577  0.72452629    -0.87700
O1387       O  0.97572595  0.05026387  0.77628860    -0.87900
O1388       O  0.53082678  0.06925236  0.81512792    -0.74900
Mg1389     Mg  0.90682302  0.41230318  0.72247795     1.58000
O1390       O  0.83881527  0.45203898  0.77293386    -0.82300
H1391       H  0.52431395  0.43436507  0.66817836    -0.06000
O1392       O  0.57211735  0.01521235  0.77873271    -0.87600
H1393       H  0.58195890  0.01834049  0.83581254    -0.05800
H1394       H  0.56142242  0.07921012  0.66780508    -0.06000
C1395       C  0.56451059  0.49901818  0.81113670     0.87500
C1396       C  0.00384655  0.43298008  0.69205923     0.88100
C1397       C  0.56269052  0.06172888  0.69254185     0.88200
H1398       H  0.97170749  0.05826732  0.83313768    -0.06000
O1399       O  0.92095210  0.45849132  0.81351799    -0.75000
Mg1400     Mg  0.58889649  0.08101082  0.77723589     1.58000
H1401       H  0.93281375  0.41192427  0.83231857    -0.06000
C1402       C  0.58379688  0.40504500  0.77191203     0.93200
O1403       O  0.65701585  0.03997882  0.72823372    -0.82200
C1404       C  0.67452164  0.07996445  0.73389661     0.93200
O1405       O  0.88836024  0.34285214  0.72190573    -0.82200
Mg1406     Mg  0.90912316  0.00264592  0.77421085     1.58200
O1407       O  0.60306847  0.44322372  0.75960034    -0.80600
O1408       O  0.94955864  0.10635287  0.72385816    -0.82300
C1409       C  0.69734522  0.32428526  0.91878211    -0.11800
C1410       C  0.66422797  0.32750476  0.93851413     0.05200
C1411       C  0.62677832  0.31891197  0.91684635    -0.07100
C1412       C  0.62836516  0.31841692  0.87643702    -0.07800
C1413       C  0.66512330  0.32343596  0.85647925    -0.02400
C1414       C  0.69750684  0.32059234  0.87835505     0.04500
N1415       N  0.72825724  0.31017380  0.86100186     0.67000
H1416       H  0.72178519  0.32146892  0.93503233     0.15900
H1417       H  0.59957687  0.31194992  0.86052062     0.15600
N1418       N  0.58596445  0.30757874  0.93475353     0.74700
O1419       O  0.76553394  0.32468368  0.87541547    -0.38800
O1420       O  0.71623804  0.28128030  0.83555544    -0.38700
O1421       O  0.56372210  0.32394956  0.92283424    -0.39400
O1422       O  0.56787042  0.27472477  0.95535408    -0.39500
C1423       C  0.67125551  0.36372870  0.67020709    -0.11800
C1424       C  0.66567442  0.32667123  0.68858654     0.05200
C1425       C  0.67134555  0.29697610  0.66542318    -0.07100
C1426       C  0.67080077  0.29971006  0.62508251    -0.07800
C1427       C  0.66736481  0.33257874  0.60650918    -0.02400
C1428       C  0.67322260  0.36779117  0.62983833     0.04500
N1429       N  0.68432973  0.40877229  0.61410286     0.67000
H1430       H  0.67701513  0.39115463  0.68748626     0.15900
H1431       H  0.67600973  0.27721620  0.60814016     0.15600
N1432       N  0.68197301  0.26658252  0.68162444     0.74700
O1433       O  0.67161677  0.43212547  0.63077274    -0.38800
O1434       O  0.71219216  0.42459612  0.58764993    -0.38700
O1435       O  0.66580773  0.22955898  0.66733253    -0.39400
O1436       O  0.71349712  0.27888479  0.70453862    -0.39500
C1437       C  0.87158711  0.17790092  0.83091632    -0.11800
C1438       C  0.83521546  0.17415874  0.81127497     0.05200
C1439       C  0.80592225  0.18248488  0.83299820    -0.07100
C1440       C  0.80749466  0.18260453  0.87343975    -0.07800
C1441       C  0.83919485  0.17758035  0.89331526    -0.02400
C1442       C  0.87490547  0.18119636  0.87139389     0.04500
N1443       N  0.91577954  0.19160714  0.88877040     0.67000
H1444       H  0.89902791  0.18106691  0.81454057     0.15900
H1445       H  0.78473222  0.18867039  0.88947579     0.15600
N1446       N  0.77657668  0.19400196  0.81509237     0.74700
O1447       O  0.93954073  0.17826972  0.87361949    -0.38800
O1448       O  0.93134250  0.21944004  0.91517750    -0.38700
O1449       O  0.73832455  0.17850898  0.82747025    -0.39400
O1450       O  0.79105814  0.22596711  0.79333101    -0.39500
C1451       C  0.80025220  0.17342806  0.62382289    -0.11800
C1452       C  0.83361534  0.17084938  0.64341247     0.05200
C1453       C  0.87104976  0.17924706  0.62160075    -0.07100
C1454       C  0.86958753  0.17985585  0.58119058    -0.07800
C1455       C  0.83290601  0.17479205  0.56128945    -0.02400
C1456       C  0.80047614  0.17748346  0.58349978     0.04500
N1457       N  0.77076704  0.18918201  0.56665980     0.66400
H1458       H  0.77535968  0.17581605  0.64019429     0.15900
H1459       H  0.89855808  0.18650471  0.56519007     0.15600
N1460       N  0.91173516  0.19023057  0.63939653     0.74700
O1461       O  0.73220343  0.17219867  0.57851091    -0.38800
O1462       O  0.78495055  0.22216615  0.54624656    -0.38700
O1463       O  0.93399845  0.17402405  0.62659738    -0.39400
O1464       O  0.92985431  0.22288054  0.66070786    -0.39500
C1465       C  0.83285903  0.67288645  0.01692839     0.30500
C1466       C  0.83627003  0.67420480  0.43744637     0.30500
C1467       C  0.85637969  0.65092002  0.99794329    -0.05700
C1468       C  0.78915199  0.64982013  0.99600633    -0.06500
C1469       C  0.85480432  0.71661902  0.99819244    -0.06300
C1470       C  0.85755622  0.65071009  0.45753621    -0.05700
C1471       C  0.79032956  0.65111459  0.45559283    -0.06500
C1472       C  0.85683191  0.71761474  0.45808779    -0.06400
C1473       C  0.87447698  0.62449351  0.44684430    -0.31700
N1474       N  0.88526132  0.61114253  0.47939748     0.14800
C1475       C  0.87359240  0.62616603  0.01054199    -0.31700
H1476       H  0.87626732  0.61819863  0.04008344     0.16700
C1477       C  0.74781968  0.62731665  0.44311162    -0.30700
N1478       N  0.72215771  0.61120649  0.97463477     0.13500
C1479       C  0.74711378  0.62340879  0.00666786    -0.30700
C1480       C  0.87946772  0.75991013  0.44762904    -0.31000
N1481       N  0.89038892  0.78382947  0.98044659     0.14000
H1482       H  0.88778250  0.77229847  0.41860486     0.16600
C1483       C  0.87556164  0.75783678  0.01137216    -0.31000
H1484       H  0.88047805  0.76825918  0.04128113     0.16600
H1485       H  0.73510356  0.61358979  0.03563655     0.16600
H1486       H  0.87809292  0.61515309  0.41783060     0.16700
H1487       H  0.73626927  0.62129101  0.41359133     0.16600
C1488       C  0.83200496  0.66796562  0.18758688     0.30500
C1489       C  0.83320904  0.66958829  0.26708640     0.30500
C1490       C  0.85408628  0.64479398  0.20703202    -0.05700
C1491       C  0.85404954  0.71202693  0.20699594    -0.06500
C1492       C  0.78709824  0.64591578  0.20778047    -0.06300
C1493       C  0.85441715  0.64565157  0.24751380    -0.05700
C1494       C  0.85552794  0.71237749  0.24701389    -0.06500
C1495       C  0.78826611  0.64709419  0.24823489    -0.06400
C1496       C  0.87239341  0.62132142  0.25945602    -0.31700
N1497       N  0.88418267  0.60691876  0.22790727     0.14800
C1498       C  0.87250012  0.62006433  0.19570379    -0.31700
H1499       H  0.87646163  0.61153075  0.16653898     0.16700
C1500       C  0.87798661  0.75384193  0.25905212    -0.30700
N1501       N  0.88882481  0.77887012  0.22754091     0.13500
C1502       C  0.87397272  0.75402718  0.19541303    -0.30700
C1503       C  0.74698123  0.62120807  0.26121098    -0.31000
N1504       N  0.72037847  0.60544103  0.23040520     0.14000
H1505       H  0.73694050  0.61297998  0.29091359     0.16600
C1506       C  0.74424142  0.61912478  0.19753820    -0.31000
H1507       H  0.73139287  0.60943498  0.16866304     0.16600
H1508       H  0.87780387  0.76558889  0.16610256     0.16600
H1509       H  0.87692701  0.61444888  0.28892987     0.16700
H1510       H  0.88479719  0.76518160  0.28866618     0.16600
C1511       C  0.66492068  0.83164886  0.06222960     0.30500
C1512       C  0.66602840  0.83125482  0.48272875     0.30500
C1513       C  0.64150862  0.85321871  0.04226474    -0.05700
C1514       C  0.70992311  0.85335925  0.04300214    -0.06500
C1515       C  0.64276895  0.78730759  0.04224744    -0.06300
C1516       C  0.64352040  0.85390038  0.50188460    -0.05700
C1517       C  0.71031559  0.85421202  0.50269338    -0.06500
C1518       C  0.64502598  0.78784317  0.50208539    -0.06400
C1519       C  0.62686321  0.87902807  0.48934577    -0.31700
N1520       N  0.61204519  0.89120051  0.52029232     0.14800
C1521       C  0.61985546  0.87520046  0.05275656    -0.31700
H1522       H  0.61061006  0.87958011  0.08155438     0.16700
C1523       C  0.75257318  0.87896590  0.49152900    -0.30700
N1524       N  0.77783530  0.89106052  0.02344694     0.13500
C1525       C  0.75247955  0.87531142  0.05518402    -0.30700
C1526       C  0.62546572  0.74661048  0.48901024    -0.31000
N1527       N  0.60924381  0.72070616  0.51976130     0.14000
H1528       H  0.62166403  0.73612001  0.45913921     0.16600
C1529       C  0.61861854  0.74478865  0.05243867    -0.31000
H1530       H  0.60828451  0.73213877  0.08113897     0.16600
H1531       H  0.76400300  0.88029731  0.08470193     0.16600
H1532       H  0.62627604  0.88868028  0.45993585     0.16700
H1533       H  0.76455580  0.88762636  0.46231958     0.16600
C1534       C  0.66313074  0.82482127  0.23289146     0.30500
C1535       C  0.66528799  0.82561228  0.31234100     0.30500
C1536       C  0.64073110  0.84718490  0.25328640    -0.05700
C1537       C  0.64040863  0.78123500  0.25248039    -0.06500
C1538       C  0.70779968  0.84659497  0.25158437    -0.06300
C1539       C  0.64207756  0.84825554  0.29372074    -0.05700
C1540       C  0.64260293  0.78145994  0.29269768    -0.06500
C1541       C  0.70939728  0.84836353  0.29177546    -0.06400
C1542       C  0.62163078  0.87104077  0.30566761    -0.31700
N1543       N  0.60759020  0.88244362  0.27379145     0.14800
C1544       C  0.61836119  0.86755995  0.24200001    -0.31700
H1545       H  0.60974101  0.87102559  0.21280014     0.16700
C1546       C  0.62127647  0.73949984  0.30445523    -0.30700
N1547       N  0.60487587  0.71457226  0.27254630     0.13500
C1548       C  0.61507372  0.73967041  0.24104827    -0.30700
C1549       C  0.75208953  0.87536115  0.30161925    -0.31000
N1550       N  0.77574830  0.88701087  0.26866671     0.14000
H1551       H  0.76506428  0.88629167  0.33027478     0.16600
C1552       C  0.74912901  0.87002357  0.23800743    -0.31000
H1553       H  0.75908001  0.87551990  0.20802295     0.16600
H1554       H  0.60505158  0.72810197  0.21189403     0.16600
H1555       H  0.61753928  0.87914425  0.33500061     0.16700
H1556       H  0.61781809  0.72802418  0.33377830     0.16600
O1557       O  0.94478519  0.52234668  0.02706227    -0.87800
C1558       C  0.93110150  0.93744032  0.44245251     0.88200
Mg1559     Mg  0.99301800  0.58787187  0.02482310     1.58100
O1560       O  0.98215615  0.93042479  0.02709044    -0.87600
O1561       O  0.92691926  0.96919721  0.06635424    -0.74900
C1562       C  0.67605486  0.58975808  0.47646774     0.93200
O1563       O  0.96098863  0.53873964  0.43561796    -0.74700
O1564       O  0.65641362  0.61081038  0.47003794    -0.82200
Mg1565     Mg  0.90542006  0.99558527  0.47582186     1.58000
C1566       C  0.59150443  0.91670702  0.01736727     0.93200
O1567       O  0.84267578  0.95077139  0.00802257    -0.80500
H1568       H  0.98125270  0.92101440  0.08401287    -0.05800
C1569       C  0.56354021  0.49705060  0.43910929     0.88100
O1570       O  0.53951126  0.57664719  0.06263948    -0.75000
O1571       O  0.92482144  0.94783158  0.47498616    -0.87800
O1572       O  0.55243294  0.89884553  0.00593701    -0.80600
C1573       C  0.91538416  0.82893442  0.48357673     0.93300
C1574       C  0.82388414  0.91321049  0.02165610     0.93100
Mg1575     Mg  0.59441729  0.50832639  0.02277975     1.58000
O1576       O  0.65675849  0.55197412  0.48954051    -0.80500
O1577       O  0.53913028  0.96599497  0.06348231    -0.74700
O1578       O  0.89739952  0.84926771  0.49761971    -0.80600
O1579       O  0.88495996  0.54632581  0.47619634    -0.82300
O1580       O  0.60251165  0.65536490  0.00223916    -0.80600
C1581       C  0.49993837  0.93786457  0.05902584     0.87600
O1582       O  0.57549561  0.55660134  0.02397171    -0.87700
O1583       O  0.55477416  0.98177070  0.47187375    -0.87900
O1584       O  0.57287197  0.53525678  0.43284052    -0.74900
Mg1585     Mg  0.91504070  0.91235378  0.02798088     1.58000
O1586       O  0.95543887  0.84685413  0.47562996    -0.82300
H1587       H  0.93754694  0.52747539  0.08387419    -0.06000
O1588       O  0.51785728  0.57447545  0.47209309    -0.87600
H1589       H  0.51873926  0.58417812  0.41522650    -0.05800
H1590       H  0.58785168  0.56599486  0.08059047    -0.06000
C1591       C  0.00009283  0.56707885  0.44016099     0.87500
C1592       C  0.93593063  0.00724844  0.05986110     0.88100
C1593       C  0.56899659  0.56688846  0.05647878     0.88200
H1594       H  0.56167124  0.97688921  0.41495588    -0.06000
O1595       O  0.96048771  0.92760304  0.43617806    -0.75000
Mg1596     Mg  0.58517073  0.59225733  0.47129956     1.58000
H1597       H  0.91218771  0.93839103  0.41840569    -0.06000
C1598       C  0.90652009  0.58622940  0.48217172     0.93200
O1599       O  0.54412623  0.65750792  0.02397182    -0.82200
C1600       C  0.58431118  0.67555373  0.01634945     0.93200
O1601       O  0.84408240  0.89303118  0.02916648    -0.82200
Mg1602     Mg  0.50643639  0.91627982  0.47446675     1.58200
O1603       O  0.94546680  0.60444376  0.49424089    -0.80600
O1604       O  0.61388540  0.95675587  0.02224745    -0.82300
O1605       O  0.51937328  0.94202835  0.22493382    -0.87800
C1606       C  0.93183304  0.93007432  0.30800053     0.88200
Mg1607     Mg  0.58606459  0.98928576  0.22725321     1.58100
O1608       O  0.92355672  0.97770918  0.22219908    -0.87600
O1609       O  0.96518317  0.92411122  0.18527234    -0.74900
C1610       C  0.58447666  0.66928478  0.27002279     0.93200
O1611       O  0.53547520  0.96084292  0.31644622    -0.74700
O1612       O  0.60662625  0.65086008  0.27697161    -0.82200
Mg1613     Mg  0.99194214  0.90513330  0.27669003     1.58000
C1614       C  0.90905426  0.58542863  0.23006801     0.93200
O1615       O  0.94741692  0.84329405  0.24466372    -0.80500
H1616       H  0.91242867  0.97437454  0.16533937    -0.05800
C1617       C  0.49183200  0.55969690  0.30893332     0.88100
O1618       O  0.57413048  0.53357127  0.18774493    -0.75000
O1619       O  0.94313061  0.92389144  0.27584168    -0.87800
O1620       O  0.89070693  0.54743980  0.24253617    -0.80600
C1621       C  0.82136748  0.91248461  0.26541178     0.93300
C1622       C  0.90971067  0.82401144  0.23002931     0.93100
Mg1623     Mg  0.50218438  0.58727023  0.22435109     1.58000
O1624       O  0.54622809  0.64941339  0.25656502    -0.80500
O1625       O  0.95901064  0.53200301  0.18428269    -0.74700
O1626       O  0.84261306  0.89507350  0.25203744    -0.80600
O1627       O  0.54327745  0.88483796  0.27784416    -0.82300
O1628       O  0.65318960  0.59787327  0.24622589    -0.80600
C1629       C  0.93027587  0.49381060  0.18980489     0.87600
O1630       O  0.55159620  0.56868367  0.22452846    -0.87700
O1631       O  0.97572442  0.55027101  0.27627493    -0.87900
O1632       O  0.53082978  0.56925590  0.31513092    -0.74900
Mg1633     Mg  0.90682780  0.91231065  0.22248534     1.58000
O1634       O  0.83881958  0.95204171  0.27294799    -0.82300
H1635       H  0.52432020  0.93436675  0.16818137    -0.06000
O1636       O  0.57211953  0.51521840  0.27872948    -0.87600
H1637       H  0.58196200  0.51834431  0.33580922    -0.05800
H1638       H  0.56142011  0.57922138  0.16780760    -0.06000
C1639       C  0.56451324  0.99902569  0.31113854     0.87500
C1640       C  0.00385089  0.93298922  0.19206422     0.88100
C1641       C  0.56268899  0.56173867  0.19254268     0.88200
H1642       H  0.97170293  0.55827448  0.33312393    -0.06000
O1643       O  0.92095824  0.95849403  0.31352835    -0.75000
Mg1644     Mg  0.58889839  0.58101661  0.27723601     1.58000
H1645       H  0.93282050  0.91192649  0.33232463    -0.06000
C1646       C  0.58380187  0.90505114  0.27191933     0.93200
O1647       O  0.65701555  0.53998663  0.22822559    -0.82200
C1648       C  0.67452172  0.57997211  0.23388997     0.93200
O1649       O  0.88836606  0.84286042  0.22190827    -0.82200
Mg1650     Mg  0.90912188  0.50265381  0.27419608     1.58200
O1651       O  0.60307306  0.94322969  0.25960713    -0.80600
O1652       O  0.94955962  0.60636046  0.22384293    -0.82300
C1653       C  0.69734844  0.82429001  0.41879157    -0.11800
C1654       C  0.66423133  0.82750982  0.43852357     0.05200
C1655       C  0.62678163  0.81891671  0.41685582    -0.07100
C1656       C  0.62836855  0.81842219  0.37644641    -0.07800
C1657       C  0.66512661  0.82344082  0.35648867    -0.02400
C1658       C  0.69750982  0.82059668  0.37836454     0.04500
N1659       N  0.72825920  0.81017657  0.36101157     0.67000
H1660       H  0.72178809  0.82147326  0.43504173     0.15900
H1661       H  0.59958049  0.81195550  0.36052999     0.15600
N1662       N  0.58596732  0.80758128  0.43476312     0.74700
O1663       O  0.76553590  0.82468567  0.37542497    -0.38800
O1664       O  0.71623879  0.78128221  0.33556588    -0.38700
O1665       O  0.56372439  0.82395207  0.42284534    -0.39400
O1666       O  0.56787321  0.77472495  0.45536068    -0.39500
C1667       C  0.67126033  0.86373147  0.17021477    -0.11800
C1668       C  0.66567921  0.82667478  0.18859561     0.05200
C1669       C  0.67134866  0.79697794  0.16543313    -0.07100
C1670       C  0.67080257  0.79970994  0.12509231    -0.07800
C1671       C  0.66736760  0.83257850  0.10651774    -0.02400
C1672       C  0.67322641  0.86779212  0.12984581     0.04500
N1673       N  0.68433257  0.90877237  0.11410886     0.67000
H1674       H  0.67702045  0.89115830  0.18749308     0.15900
H1675       H  0.67600994  0.77721445  0.10815065     0.15600
N1676       N  0.68197517  0.76658410  0.18163539     0.74700
O1677       O  0.67161965  0.93212594  0.13077805    -0.38800
O1678       O  0.71219402  0.92459522  0.08765508    -0.38700
O1679       O  0.66580832  0.72955982  0.16734488    -0.39400
O1680       O  0.71349950  0.77888630  0.20454929    -0.39500
C1681       C  0.87158654  0.67790240  0.33090813    -0.11800
C1682       C  0.83521554  0.67416196  0.31126685     0.05200
C1683       C  0.80592323  0.68248923  0.33299046    -0.07100
C1684       C  0.80749608  0.68260913  0.37343197    -0.07800
C1685       C  0.83919559  0.67758381  0.39330738    -0.02400
C1686       C  0.87490533  0.68119809  0.37138575     0.04500
N1687       N  0.91577941  0.69160863  0.38876201     0.67000
H1688       H  0.89902702  0.68106763  0.31453222     0.15900
H1689       H  0.78473420  0.68867582  0.38946820     0.15600
N1690       N  0.77657765  0.69400657  0.31508501     0.74700
O1691       O  0.93954038  0.67827107  0.37361088    -0.38800
O1692       O  0.93134268  0.71944166  0.41516898    -0.38700
O1693       O  0.73832554  0.67851347  0.32746298    -0.39400
O1694       O  0.79105892  0.72597163  0.29332355    -0.39500
C1695       C  0.80025080  0.67343466  0.12381338    -0.11800
C1696       C  0.83361584  0.67086053  0.14340392     0.05200
C1697       C  0.87105062  0.67925914  0.12159233    -0.07100
C1698       C  0.86958696  0.67986300  0.08118205    -0.07800
C1699       C  0.83290396  0.67479453  0.06128046    -0.02400
C1700       C  0.80047345  0.67748617  0.08348984     0.04500
N1701       N  0.77076252  0.68918132  0.06664821     0.66400
H1702       H  0.77535741  0.67582217  0.14018424     0.15900
H1703       H  0.89855763  0.68651156  0.06518139     0.15600
N1704       N  0.91173733  0.69024815  0.13938821     0.74700
O1705       O  0.73219948  0.67219855  0.07850081    -0.38800
O1706       O  0.78494372  0.72216196  0.04623039    -0.38700
O1707       O  0.93400220  0.67404200  0.12659219    -0.39400
O1708       O  0.92985648  0.72290332  0.16069316    -0.39500
C1709       C  0.83285888  0.67288788  0.51692899     0.30500
C1710       C  0.83627011  0.67420117  0.93744584     0.30500
C1711       C  0.85638017  0.65092266  0.49794299    -0.05700
C1712       C  0.78915198  0.64982139  0.49600684    -0.06500
C1713       C  0.85480344  0.71662099  0.49819407    -0.06300
C1714       C  0.85755557  0.65070639  0.95753653    -0.05700
C1715       C  0.79032966  0.65111209  0.95559229    -0.06500
C1716       C  0.85683263  0.71761159  0.95808619    -0.06400
C1717       C  0.87447606  0.62448949  0.94684527    -0.31700
N1718       N  0.88526079  0.61113949  0.97939879     0.14800
C1719       C  0.87359263  0.62616825  0.51054104    -0.31700
H1720       H  0.87626711  0.61819998  0.54008218     0.16700
C1721       C  0.74781989  0.62731431  0.94311107    -0.30700
N1722       N  0.72215780  0.61120735  0.47463547     0.13500
C1723       C  0.74711413  0.62340888  0.50666821    -0.30700
C1724       C  0.87946832  0.75990665  0.94762608    -0.31000
N1725       N  0.89038828  0.78383206  0.48044989     0.14000
H1726       H  0.88778239  0.77229377  0.91860244     0.16600
C1727       C  0.87556069  0.75783843  0.51137509    -0.31000
H1728       H  0.88047704  0.76825958  0.54128338     0.16600
H1729       H  0.73510402  0.61358856  0.53563724     0.16600
H1730       H  0.87809177  0.61514835  0.91783183     0.16700
H1731       H  0.73626959  0.62128767  0.91359026     0.16600
C1732       C  0.83200428  0.66796030  0.68758709     0.30500
C1733       C  0.83320912  0.66958242  0.76708644     0.30500
C1734       C  0.85408614  0.64478878  0.70703159    -0.05700
C1735       C  0.85404870  0.71202150  0.70699639    -0.06500
C1736       C  0.78709771  0.64590994  0.70778101    -0.06300
C1737       C  0.85441729  0.64564604  0.74751338    -0.05700
C1738       C  0.85552764  0.71237174  0.74701425    -0.06500
C1739       C  0.78826602  0.64708817  0.74823537    -0.06400
C1740       C  0.87239319  0.62131543  0.75945511    -0.31700
N1741       N  0.88418214  0.60691288  0.72790614     0.14800
C1742       C  0.87249977  0.62005905  0.69570284    -0.31700
H1743       H  0.87646110  0.61152580  0.66653806     0.16700
C1744       C  0.87798627  0.75383605  0.75905271    -0.30700
N1745       N  0.88882362  0.77886457  0.72754189     0.13500
C1746       C  0.87397125  0.75402190  0.69541378    -0.30700
C1747       C  0.74698128  0.62120209  0.76121189    -0.31000
N1748       N  0.72037817  0.60543505  0.73040630     0.14000
H1749       H  0.73694094  0.61297423  0.79091450     0.16600
C1750       C  0.74424078  0.61911888  0.69753914    -0.31000
H1751       H  0.73139184  0.60942914  0.66866397     0.16600
H1752       H  0.87780175  0.76558378  0.66610368     0.16600
H1753       H  0.87692659  0.61444233  0.78892891     0.16700
H1754       H  0.88479726  0.76517553  0.78866713     0.16600
C1755       C  0.66492108  0.83165016  0.56223018     0.30500
C1756       C  0.66602672  0.83125143  0.98272825     0.30500
C1757       C  0.64150991  0.85322111  0.54226573    -0.05700
C1758       C  0.70992373  0.85336049  0.54300336    -0.06500
C1759       C  0.64276919  0.78730952  0.54224705    -0.06300
C1760       C  0.64351845  0.85389692  0.00188361    -0.05700
C1761       C  0.71031421  0.85420965  0.00269215    -0.06500
C1762       C  0.64502518  0.78784036  0.00208576    -0.06400
C1763       C  0.62686079  0.87902401  0.98934432    -0.31700
N1764       N  0.61204307  0.89119709  0.02029057     0.14800
C1765       C  0.61985690  0.87520287  0.55275792    -0.31700
H1766       H  0.61061096  0.87958174  0.58155599     0.16700
C1767       C  0.75257164  0.87896284  0.99152681    -0.30700
N1768       N  0.77783615  0.89106286  0.52344948     0.13500
C1769       C  0.75247985  0.87531258  0.55518616    -0.30700
C1770       C  0.62546490  0.74660757  0.98901138    -0.31000
N1771       N  0.60924339  0.72070372  0.01976253     0.14000
H1772       H  0.62166269  0.73611641  0.95913977     0.16600
C1773       C  0.61861863  0.74479055  0.55243750    -0.31000
H1774       H  0.60828411  0.73213996  0.58113819     0.16600
H1775       H  0.76400251  0.88029781  0.58470383     0.16600
H1776       H  0.62627333  0.88867565  0.95993403     0.16700
H1777       H  0.76455354  0.88762202  0.96231743     0.16600
C1778       C  0.66312890  0.82481671  0.73289171     0.30500
C1779       C  0.66528550  0.82560657  0.81234116     0.30500
C1780       C  0.64072823  0.84717916  0.75328688    -0.05700
C1781       C  0.64040744  0.78123000  0.75248006    -0.06500
C1782       C  0.70779768  0.84659092  0.75158491    -0.06300
C1783       C  0.64207445  0.84824931  0.79372119    -0.05700
C1784       C  0.64260141  0.78145452  0.79269738    -0.06500
C1785       C  0.70939493  0.84835882  0.79177599    -0.06400
C1786       C  0.62162721  0.87103406  0.80566847    -0.31700
N1787       N  0.60758645  0.88243687  0.77379222     0.14800
C1788       C  0.61835794  0.86755382  0.74200089    -0.31700
H1789       H  0.60973785  0.87101997  0.71280025     0.16700
C1790       C  0.62127548  0.73949436  0.80445475    -0.30700
N1791       N  0.60487556  0.71456699  0.77254554     0.13500
C1792       C  0.61507326  0.73966537  0.74104776    -0.30700
C1793       C  0.75208714  0.87535580  0.80162015    -0.31000
N1794       N  0.77574625  0.88700597  0.76866794     0.14000
H1795       H  0.76506188  0.88628558  0.83027628     0.16600
C1796       C  0.74912723  0.87001944  0.73800823    -0.31000
H1797       H  0.75907844  0.87551587  0.70802432     0.16600
H1798       H  0.60505118  0.72809692  0.71189309     0.16600
H1799       H  0.61753578  0.87913725  0.83500088     0.16700
H1800       H  0.61781692  0.72801863  0.83377744     0.16600
O1801       O  0.94478601  0.52235081  0.52706332    -0.87800
C1802       C  0.93110117  0.93743820  0.94244864     0.88200
Mg1803     Mg  0.99301884  0.58787593  0.52482205     1.58100
O1804       O  0.98215689  0.93042772  0.52709494    -0.87600
O1805       O  0.92692066  0.96920152  0.56635755    -0.74900
C1806       C  0.67605472  0.58975686  0.97646648     0.93200
O1807       O  0.96098868  0.53873787  0.93561738    -0.74700
O1808       O  0.65641340  0.61080926  0.97003748    -0.82200
Mg1809     Mg  0.90541992  0.99558309  0.97581912     1.58000
C1810       C  0.59150608  0.91671006  0.51736938     0.93200
O1811       O  0.84267637  0.95077420  0.50802587    -0.80500
H1812       H  0.98125305  0.92101798  0.58401844    -0.05800
C1813       C  0.56353973  0.49704979  0.93910622     0.88100
O1814       O  0.53951194  0.57665081  0.56264059    -0.75000
O1815       O  0.92482081  0.94782901  0.97498219    -0.87800
O1816       O  0.55243446  0.89884819  0.50593943    -0.80600
C1817       C  0.91538413  0.82893191  0.98357225     0.93300
C1818       C  0.82388496  0.91321335  0.52165953     0.93100
Mg1819     Mg  0.59441770  0.50832878  0.52278288     1.58000
O1820       O  0.65675826  0.55197228  0.98953772    -0.80500
O1821       O  0.53913212  0.96599888  0.56348442    -0.74700
O1822       O  0.89739900  0.84926491  0.99761492    -0.80600
O1823       O  0.88495983  0.54632310  0.97619599    -0.82300
O1824       O  0.60251221  0.65536716  0.50223850    -0.80600
C1825       C  0.49994042  0.93786827  0.55902824     0.87600
O1826       O  0.57549617  0.55660398  0.52397368    -0.87700
O1827       O  0.55477333  0.98176866  0.97187183    -0.87900
O1828       O  0.57287175  0.53525623  0.93283830    -0.74900
Mg1829     Mg  0.91504158  0.91235706  0.52798520     1.58000
O1830       O  0.95543876  0.84685197  0.97562533    -0.82300
H1831       H  0.93754907  0.52748184  0.58387645    -0.06000
O1832       O  0.51785699  0.57447415  0.97209205    -0.87600
H1833       H  0.51873852  0.58417675  0.91522632    -0.05800
H1834       H  0.58785291  0.56599883  0.58059304    -0.06000
C1835       C  0.00009240  0.56707704  0.94016140     0.87500
C1836       C  0.93593175  0.00725246  0.55986363     0.88100
C1837       C  0.56899707  0.56689189  0.55648022     0.88200
H1838       H  0.56167054  0.97688813  0.91495324    -0.06000
O1839       O  0.96048728  0.92760112  0.93617367    -0.75000
Mg1840     Mg  0.58517044  0.59225600  0.97129862     1.58000
H1841       H  0.91218657  0.93838920  0.91840086    -0.06000
C1842       C  0.90651951  0.58622637  0.98217318     0.93200
O1843       O  0.54412674  0.65751045  0.52397065    -0.82200
C1844       C  0.58431166  0.67555619  0.51634810     0.93200
O1845       O  0.84408347  0.89303449  0.52917056    -0.82200
Mg1846     Mg  0.50643545  0.91627771  0.97446410     1.58200
O1847       O  0.94546579  0.60444038  0.99424344    -0.80600
O1848       O  0.61388679  0.95675897  0.52224941    -0.82300
O1849       O  0.51937032  0.94202223  0.72493473    -0.87800
C1850       C  0.93183102  0.93006900  0.80800250     0.88200
Mg1851     Mg  0.58606174  0.98927931  0.72725442     1.58100
O1852       O  0.92355498  0.97770341  0.72220110    -0.87600
O1853       O  0.96518130  0.92410542  0.68527455    -0.74900
C1854       C  0.58447647  0.66927951  0.77002213     0.93200
O1855       O  0.53547154  0.96083642  0.81644714    -0.74700
O1856       O  0.60662594  0.65085482  0.77697149    -0.82200
Mg1857     Mg  0.99194000  0.90512766  0.77669217     1.58000
C1858       C  0.90905332  0.58542229  0.73006664     0.93200
O1859       O  0.94741504  0.84328860  0.74466550    -0.80500
H1860       H  0.91242717  0.97436872  0.66534175    -0.05800
C1861       C  0.49183137  0.55969196  0.80893325     0.88100
O1862       O  0.57413060  0.53356560  0.68774569    -0.75000
O1863       O  0.94312837  0.92388562  0.77584388    -0.87800
O1864       O  0.89070576  0.54743354  0.74253509    -0.80600
C1865       C  0.82136553  0.91247925  0.76541338     0.93300
C1866       C  0.90970893  0.82400584  0.73003080     0.93100
Mg1867     Mg  0.50218427  0.58726470  0.72435075     1.58000
O1868       O  0.54622796  0.64940806  0.75656424    -0.80500
O1869       O  0.95900995  0.53199609  0.68428212    -0.74700
O1870       O  0.84261090  0.89506785  0.75203922    -0.80600
O1871       O  0.54327382  0.88483138  0.77784491    -0.82300
O1872       O  0.65318935  0.59786758  0.74622695    -0.80600
C1873       C  0.93027513  0.49380401  0.68980464     0.87600
O1874       O  0.55159604  0.56867807  0.72452874    -0.87700
O1875       O  0.97572295  0.55026457  0.77627435    -0.87900
O1876       O  0.53082915  0.56925101  0.81513109    -0.74900
Mg1877     Mg  0.90682579  0.91230487  0.72248735     1.58000
O1878       O  0.83881792  0.95203637  0.77294969    -0.82300
H1879       H  0.52431770  0.93436066  0.66818233    -0.06000
O1880       O  0.57211871  0.51521290  0.77873048    -0.87600
H1881       H  0.58196028  0.51833857  0.83581034    -0.05800
H1882       H  0.56142054  0.57921613  0.66780746    -0.06000
C1883       C  0.56450966  0.99901905  0.81113953     0.87500
C1884       C  0.00384891  0.93298361  0.69206671     0.88100
C1885       C  0.56268915  0.56173295  0.69254329     0.88200
H1886       H  0.97170085  0.55826845  0.83312317    -0.06000
O1887       O  0.92095656  0.95848882  0.81353038    -0.75000
Mg1888     Mg  0.58889790  0.58101125  0.77723657     1.58000
H1889       H  0.93281852  0.91192071  0.83232752    -0.06000
C1890       C  0.58379828  0.90504451  0.77192039     0.93200
O1891       O  0.65701513  0.53998071  0.72822723    -0.82200
C1892       C  0.67452142  0.57996624  0.73389134     0.93200
O1893       O  0.88836402  0.84285457  0.72190996    -0.82200
Mg1894     Mg  0.90912041  0.50264742  0.77419539     1.58200
O1895       O  0.60306972  0.94322319  0.75960857    -0.80600
O1896       O  0.94955867  0.60635379  0.72384146    -0.82300
C1897       C  0.69734571  0.82428435  0.91879149    -0.11800
C1898       C  0.66422901  0.82750508  0.93852326     0.05200
C1899       C  0.62677904  0.81891133  0.91685566    -0.07100
C1900       C  0.62836569  0.81841593  0.87644632    -0.07800
C1901       C  0.66512378  0.82343459  0.85648868    -0.02400
C1902       C  0.69750695  0.82059043  0.87836458     0.04500
N1903       N  0.72825628  0.81017012  0.86101175     0.67000
H1904       H  0.72178538  0.82146767  0.93504190     0.15900
H1905       H  0.59957739  0.81194874  0.86052986     0.15600
N1906       N  0.58596483  0.80757614  0.93476307     0.74700
O1907       O  0.76553260  0.82467834  0.87542577    -0.38800
O1908       O  0.71623618  0.78127654  0.83556534    -0.38700
O1909       O  0.56372158  0.82394637  0.92284478    -0.39400
O1910       O  0.56787112  0.77472041  0.95536142    -0.39500
C1911       C  0.67125936  0.86372900  0.67021623    -0.11800
C1912       C  0.66567781  0.82667157  0.68859594     0.05200
C1913       C  0.67134759  0.79697555  0.66543256    -0.07100
C1914       C  0.67080219  0.79970909  0.62509186    -0.07800
C1915       C  0.66736735  0.83257826  0.60651832    -0.02400
C1916       C  0.67322599  0.86779111  0.62984742     0.04500
N1917       N  0.68433275  0.90877202  0.61411169     0.67000
H1918       H  0.67701930  0.89115528  0.68749540     0.15900
H1919       H  0.67601001  0.77721427  0.60814946     0.15600
N1920       N  0.68197406  0.76658128  0.68163386     0.74700
O1921       O  0.67162006  0.93212533  0.63078173    -0.38800
O1922       O  0.71219467  0.92459561  0.58765836    -0.38700
O1923       O  0.66580767  0.72955754  0.66734222    -0.39400
O1924       O  0.71349799  0.77888281  0.70454814    -0.39500
C1925       C  0.87158633  0.67789579  0.83090806    -0.11800
C1926       C  0.83521567  0.67415612  0.81126673     0.05200
C1927       C  0.80592415  0.68248487  0.83298989    -0.07100
C1928       C  0.80749688  0.68260534  0.87343136    -0.07800
C1929       C  0.83919578  0.67757920  0.89330696    -0.02400
C1930       C  0.87490520  0.68119231  0.87138565     0.04500
N1931       N  0.91577927  0.69160280  0.88876200     0.67000
H1932       H  0.89902629  0.68106017  0.81453247     0.15900
H1933       H  0.78473570  0.68867296  0.88946714     0.15600
N1934       N  0.77657936  0.69400300  0.81508405     0.74700
O1935       O  0.93954003  0.67826482  0.87361119    -0.38800
O1936       O  0.93134272  0.71943617  0.91516868    -0.38700
O1937       O  0.73832686  0.67850960  0.82746103    -0.39400
O1938       O  0.79106179  0.72596954  0.79332435    -0.39500
C1939       C  0.80024938  0.67343009  0.62381446    -0.11800
C1940       C  0.83361486  0.67085603  0.64340428     0.05200
C1941       C  0.87105003  0.67925651  0.62159249    -0.07100
C1942       C  0.86958688  0.67986284  0.58118230    -0.07800
C1943       C  0.83290364  0.67479440  0.56128111    -0.02400
C1944       C  0.80047221  0.67748356  0.58349117     0.04500
N1945       N  0.77076027  0.68917809  0.56665071     0.66400
H1946       H  0.77535565  0.67581623  0.64018575     0.15900
H1947       H  0.89855777  0.68651280  0.56518156     0.15600
N1948       N  0.91173658  0.69024468  0.63938825     0.74700
O1949       O  0.73219727  0.67219402  0.57850360    -0.38800
O1950       O  0.78494032  0.72215896  0.54623332    -0.38700
O1951       O  0.93400114  0.67403849  0.62659157    -0.39400
O1952       O  0.92985603  0.72289942  0.66069369    -0.39500
loop_ 
_geom_bond_atom_site_label_1 
_geom_bond_atom_site_label_2 
_geom_bond_distance 
_geom_bond_site_symmetry_2 
_ccdc_geom_bond_type 
C1            C3   1.540   1_554  S
C1            C5   1.525   1_554  S
C1            C4   1.536   1_554  S
C1          C235   1.535       .  S
C2            C6   1.549       .  S
C2            C8   1.535       .  S
C2            C7   1.555       .  S
C2          C221   1.532       .  S
C3           C11   1.375   1_556  A
C3          C250   1.398       .  A
C4           C15   1.372   1_556  A
C4          C251   1.399       .  A
C5           C19   1.370   1_556  A
C5          C252   1.389       .  A
C6            C9   1.387       .  A
C6          C247   1.398       .  A
C7           C13   1.390       .  A
C7          C248   1.399       .  A
C8           C16   1.382       .  A
C8          C249   1.389       .  A
C9           N10   1.355       .  A
C9           H22   1.082       .  S
N10         C255   1.351       .  A
N10         C134   1.427       .  S
C11         N254   1.351   1_554  A
C11          H12   1.081       .  S
C13         N258   1.357       .  A
C13          H23   1.082       .  S
N14          C15   1.351   1_556  A
N14         C257   1.357       .  A
N14         C342   1.429       .  S
C15          H21   1.080       .  S
C16         N261   1.357       .  A
C16          H18   1.082       .  S
N17          C19   1.353   1_556  A
N17         C260   1.357       .  A
N17         C353   1.425       .  S
C19          H20   1.083       .  S
C24          C26   1.551       .  S
C24          C28   1.556       .  S
C24          C27   1.535       .  S
C24         C232   1.532       .  S
C25          C29   1.541       .  S
C25          C31   1.537       .  S
C25          C30   1.519       .  S
C25         C218   1.534       .  S
C26          C34   1.387       .  A
C26          C29   1.401       .  A
C27          C38   1.383       .  A
C27          C30   1.385       .  A
C28          C42   1.391       .  A
C28          C31   1.400       .  A
C29          C32   1.375       .  A
C30          C36   1.367       .  A
C31          C39   1.373       .  A
C32          N33   1.352       .  A
C32          H45   1.082       .  S
N33          C34   1.356       .  A
N33         C150   1.428       .  S
C34          H35   1.080       .  S
C36          N37   1.351       .  A
C36          H46   1.083       .  S
N37          C38   1.357       .  A
N37         C158   1.422       .  S
C38          H44   1.082       .  S
C39          N40   1.351       .  A
C39          H41   1.082       .  S
N40          C42   1.359       .  A
N40         C184   1.430       .  S
C42          H43   1.082       .  S
C47          C49   1.551       .  S
C47          C51   1.551       .  S
C47          C50   1.544       .  S
C47         C207   1.534       .  S
C48          C52   1.534       .  S
C48          C54   1.525       .  S
C48          C53   1.536       .  S
C48         C190   1.533       .  S
C49          C57   1.387       .  A
C49         C296   1.398       .  A
C50          C61   1.384       .  A
C50         C297   1.395       .  A
C51          C65   1.390       .  A
C51         C298   1.391       .  A
C52          C55   1.371       .  A
C52         C293   1.398       .  A
C53          C59   1.374       .  A
C53         C294   1.395       .  A
C54          C62   1.370       .  A
C54         C295   1.391       .  A
C55          N56   1.350       .  A
C55          H68   1.082       .  S
N56         C301   1.356       .  A
N56         C346   1.425       .  S
C57         N300   1.356       .  A
C57          H58   1.081       .  S
C59         N304   1.353       .  A
C59          H69   1.082       .  S
N60          C61   1.357       .  A
N60         C303   1.353   1_554  A
N60         C110   1.427       .  S
C61          H67   1.082       .  S
C62          N63   1.350       .  A
C62          H64   1.083       .  S
N63         C309   1.358       .  A
N63         C380   1.427       .  S
C65         N307   1.358       .  A
C65          H66   1.082       .  S
C70          C72   1.542       .  S
C70          C74   1.526       .  S
C70          C73   1.534       .  S
C70         C204   1.535       .  S
C71          C75   1.555       .  S
C71          C77   1.541       .  S
C71          C76   1.541       .  S
C71         C193   1.530       .  S
C72          C80   1.374       .  A
C72          C75   1.399       .  A
C73          C84   1.373       .  A
C73          C76   1.394       .  A
C74          C88   1.370       .  A
C74          C77   1.391       .  A
C75          C78   1.390       .  A
C76          C82   1.384       .  A
C77          C85   1.385       .  A
C78          N79   1.357       .  A
C78          H91   1.082       .  S
N79          C80   1.351       .  A
N79         C182   1.429       .  S
C80          H81   1.082       .  S
C82          N83   1.357       .  A
C82          H92   1.083       .  S
N83          C84   1.353       .  A
N83         C146   1.427       .  S
C84          H90   1.081       .  S
C85          N86   1.355       .  A
C85          H87   1.082       .  S
N86          C88   1.351       .  A
N86         C157   1.423       .  S
C88          H89   1.083       .  S
O93         Mg95   2.138       .  S
O93        Mg833   2.168   1_544  S
O93         C616   1.234       .  S
C94         H133   1.081       .  S
C94         O107   1.235       .  S
C94         O131   1.268       .  A
Mg95       O1344   2.171   1_554  S
Mg95        O383   2.304   1_554  S
Mg95       O1111   2.269       .  S
Mg95       O1082   2.293       .  S
O96        Mg121   2.138       .  S
O96       Mg1358   2.169   1_554  S
O96        C1093   1.235       .  S
O97         C128   1.267       .  A
O97        Mg121   2.289       .  S
C98         N258   1.429       .  S
C98         O100   1.274       .  A
C98         O112   1.275       .  A
O99         C127   1.269       .  A
O99        Mg589   2.294   1_545  S
O100       Mg132   2.275       .  S
Mg101       O107   2.137       .  S
Mg101       O825   2.168       .  S
Mg101       O587   2.294       .  S
Mg101       O603   2.266       .  S
Mg101       O347   2.304       .  S
C102        N300   1.425       .  S
C102        O140   1.273       .  A
C102        O108   1.273       .  A
O103        C110   1.275       .  A
O103       Mg345   2.304   1_554  S
H104       C1093   1.081       .  S
C105        H618   1.082       .  S
C105        O607   1.235       .  S
C105        O120   1.268   1_565  A
O106        C129   1.269       .  A
O106      Mg1071   2.293   1_455  S
O107       Mg365   2.172       .  S
O108       Mg382   2.291   1_554  S
C109        N261   1.425       .  S
C109        O122   1.271       .  A
C109        O114   1.272       .  A
C110        O137   1.271       .  A
Mg111       O118   2.143       .  S
Mg111       O851   2.162   1_544  S
Mg111       O356   2.303   1_554  S
Mg111       O601   2.292   1_545  S
Mg111       O628   2.270   1_545  S
O112       Mg355   2.303       .  S
O113        C117   1.268   1_455  A
O113       Mg599   2.292       .  S
O114       Mg365   2.286       .  S
O115        C134   1.272       .  A
O115       Mg589   2.266   1_545  S
O116        C136   1.275       .  A
O116       Mg376   2.298   1_554  S
C117       H1080   1.081       .  S
C117       O1072   1.235       .  S
O118       Mg376   2.166   1_554  S
O118        C129   1.236       .  S
O119       Mg138   2.138       .  S
O119       Mg843   2.162       .  S
O119        C593   1.235       .  S
O120       Mg132   2.291       .  S
Mg121       O351   2.172   1_554  S
Mg121       O137   2.258       .  S
Mg121       O358   2.286   1_554  S
O122      Mg1114   2.263       .  S
H123        C616   1.082       .  S
O124       Mg132   2.147       .  S
O124      Mg1315   2.171   1_455  S
O124       C1103   1.235       .  S
H125       C1103   1.081       .  S
H126        C129   1.081       .  S
C127       H1101   1.081       .  S
C127       O1100   1.235       .  S
C128        H611   1.082       .  S
C128        O581   1.234       .  S
H130        C593   1.082       .  S
O131      Mg1114   2.289       .  S
Mg132       O362   2.166       .  S
Mg132       O360   2.298       .  S
C134        O139   1.276       .  A
O135        C136   1.272       .  A
O135      Mg1071   2.269   1_455  S
C136        N307   1.427       .  S
Mg138      O1316   2.169   1_455  S
Mg138       O352   2.291       .  S
Mg138      O1098   2.263   1_455  S
Mg138      O1107   2.289   1_455  S
O139       Mg339   2.304       .  S
O140       Mg599   2.270       .  S
O141       Mg143   2.139       .  S
O141      Mg1125   2.165   1_455  S
O141       C1152   1.235       .  S
C142        H181   1.081       .  S
C142        O155   1.235       .  S
C142        O179   1.268       .  A
Mg143       O660   2.166       .  S
Mg143       O187   2.317       .  S
Mg143       O671   2.278       .  S
Mg143       O642   2.298       .  S
O144       Mg169   2.128       .  S
O144       Mg674   2.170       .  S
O144        C653   1.234       .  S
O145        C176   1.268       .  A
O145       Mg169   2.289       .  S
C146        O148   1.273       .  A
C146        O160   1.273       .  A
O147        C175   1.268       .  A
O147      Mg1125   2.292   1_455  S
O148       Mg180   2.274       .  S
Mg149       O155   2.139       .  S
Mg149      O1117   2.165       .  S
Mg149       O151   2.286       .  S
Mg149      O1123   2.292       .  S
Mg149      O1139   2.264       .  S
C150        O188   1.273       .  A
C150        O156   1.273       .  A
O151        C158   1.273       .  A
H152        C653   1.082       .  S
C153       H1154   1.082       .  S
C153       O1143   1.236       .  S
C153        O168   1.269   1_655  A
O154        C177   1.270       .  A
O154       Mg631   2.298   1_545  S
O155       Mg169   2.173       .  S
O156       Mg186   2.297       .  S
C157        O170   1.271       .  A
C157        O162   1.273       .  A
C158        O185   1.270       .  A
Mg159       O166   2.155       .  S
Mg159      O1143   2.167   1_455  S
Mg159       O160   2.292       .  S
Mg159      O1137   2.286   1_455  S
Mg159      O1164   2.277   1_455  S
O161        C165   1.267   1_545  A
O161      Mg1135   2.286       .  S
O162       Mg169   2.285       .  S
O163        C182   1.271       .  A
O163      Mg1125   2.264   1_455  S
O164        C184   1.277       .  A
O164       Mg180   2.313       .  S
C165        H640   1.082       .  S
C165        O632   1.234       .  S
O166       Mg180   2.169       .  S
O166        C177   1.236       .  S
O167       Mg186   2.139       .  S
O167      Mg1135   2.167       .  S
O167       C1129   1.236       .  S
O168       Mg180   2.295       .  S
Mg169       O185   2.254       .  S
O170       Mg674   2.261       .  S
H171       C1152   1.082       .  S
O172       Mg180   2.143       .  S
O172       Mg631   2.166   1_545  S
O172        C663   1.235   1_545  S
H173        C663   1.082   1_545  S
H174        C177   1.080       .  S
C175        H661   1.082       .  S
C175        O660   1.235       .  S
C176       H1147   1.082       .  S
C176       O1117   1.235       .  S
H178       C1129   1.082       .  S
O179       Mg674   2.289       .  S
C182        O187   1.277       .  A
O183        C184   1.273       .  A
O183       Mg631   2.278   1_545  S
Mg186       O632   2.170   1_545  S
Mg186       O658   2.261   1_545  S
Mg186       O667   2.289   1_545  S
O188      Mg1135   2.277       .  S
C189        C190   1.406       .  A
C189        C194   1.404       .  A
C189        H196   1.080       .  S
C190        C191   1.422       .  A
C191        C192   1.399       .  A
C191        N198   1.436       .  S
C192        C193   1.403       .  A
C192        H197   1.081       .  S
C193        C194   1.422       .  A
C194        N195   1.439       .  S
N195        O199   1.263       .  A
N195        O200   1.262       .  A
N198        O202   1.261       .  A
N198        O201   1.263       .  A
C203        C204   1.407       .  A
C203        C208   1.403       .  A
C203        H210   1.080       .  S
C204        C205   1.419       .  A
C205        C206   1.401       .  A
C205        N212   1.436       .  S
C206        C207   1.407       .  A
C206        H211   1.080       .  S
C207        C208   1.423       .  A
C208        N209   1.440       .  S
N209        O213   1.263       .  A
N209        O214   1.261       .  A
N212        O216   1.262       .  A
N212        O215   1.263       .  A
C217        C218   1.406       .  A
C217        C222   1.405       .  A
C217        H224   1.080       .  S
C218        C219   1.421       .  A
C219        C220   1.400       .  A
C219        N226   1.436       .  S
C220        C221   1.404       .  A
C220        H225   1.081       .  S
C221        C222   1.423       .  A
C222        N223   1.440       .  S
N223        O227   1.263       .  A
N223        O228   1.262       .  A
N226        O230   1.262       .  A
N226        O229   1.263       .  A
C231        C232   1.406       .  A
C231        C236   1.404       .  A
C231        H238   1.083       .  S
C232        C233   1.423       .  A
C233        C234   1.400       .  A
C233        N240   1.436       .  S
C234        C235   1.404       .  A
C234        H239   1.084       .  S
C235        C236   1.420       .  A
C236        N237   1.436       .  S
N237        O241   1.263       .  A
N237        O242   1.262       .  A
N240        O244   1.261       .  A
N240        O243   1.263       .  A
C245        C247   1.540       .  S
C245        C249   1.525       .  S
C245        C248   1.536       .  S
C245        C479   1.535       .  S
C246        C250   1.549       .  S
C246        C252   1.535       .  S
C246        C251   1.555       .  S
C246        C465   1.532       .  S
C247        C255   1.375       .  A
C248        C259   1.372       .  A
C249        C263   1.370       .  A
C250        C253   1.387       .  A
C251        C257   1.390       .  A
C252        C260   1.382       .  A
C253        N254   1.355       .  A
C253        H266   1.082       .  S
N254        C378   1.427       .  S
C255        H256   1.081       .  S
C257        H267   1.082       .  S
N258        C259   1.351       .  A
C259        H265   1.080       .  S
C260        H262   1.082       .  S
N261        C263   1.353       .  A
C263        H264   1.083       .  S
C268        C270   1.551       .  S
C268        C272   1.556       .  S
C268        C271   1.535       .  S
C268        C476   1.532       .  S
C269        C273   1.541       .  S
C269        C275   1.537       .  S
C269        C274   1.519       .  S
C269        C462   1.534       .  S
C270        C278   1.387       .  A
C270        C273   1.401       .  A
C271        C282   1.383       .  A
C271        C274   1.385       .  A
C272        C286   1.391       .  A
C272        C275   1.400       .  A
C273        C276   1.375       .  A
C274        C280   1.367       .  A
C275        C283   1.373       .  A
C276        N277   1.352       .  A
C276        H289   1.082       .  S
N277        C278   1.356       .  A
N277        C394   1.428       .  S
C278        H279   1.080       .  S
C280        N281   1.351       .  A
C280        H290   1.083       .  S
N281        C282   1.357       .  A
N281        C402   1.422       .  S
C282        H288   1.082       .  S
C283        N284   1.351       .  A
C283        H285   1.082       .  S
N284        C286   1.359       .  A
N284        C428   1.430       .  S
C286        H287   1.082       .  S
C291        C293   1.551       .  S
C291        C295   1.551       .  S
C291        C294   1.544       .  S
C291        C451   1.534       .  S
C292        C296   1.534   1_556  S
C292        C298   1.525   1_556  S
C292        C297   1.536   1_556  S
C292        C434   1.533       .  S
C293        C301   1.387       .  A
C294        C305   1.384       .  A
C295        C309   1.390       .  A
C296        C299   1.371   1_554  A
C297        C303   1.374   1_554  A
C298        C306   1.370   1_554  A
C299        N300   1.350   1_556  A
C299        H312   1.082       .  S
C301        H302   1.081       .  S
C303        H313   1.082       .  S
N304        C305   1.357       .  A
N304        C354   1.427       .  S
C305        H311   1.082       .  S
C306        N307   1.350   1_556  A
C306        H308   1.083       .  S
C309        H310   1.082       .  S
C314        C316   1.542       .  S
C314        C318   1.526       .  S
C314        C317   1.534       .  S
C314        C448   1.535       .  S
C315        C319   1.555       .  S
C315        C321   1.541       .  S
C315        C320   1.541       .  S
C315        C437   1.530       .  S
C316        C324   1.374       .  A
C316        C319   1.399       .  A
C317        C328   1.373       .  A
C317        C320   1.394       .  A
C318        C332   1.370       .  A
C318        C321   1.391       .  A
C319        C322   1.390       .  A
C320        C326   1.384       .  A
C321        C329   1.385       .  A
C322        N323   1.357       .  A
C322        H335   1.082       .  S
N323        C324   1.351       .  A
N323        C426   1.429       .  S
C324        H325   1.082       .  S
C326        N327   1.357       .  A
C326        H336   1.083       .  S
N327        C328   1.353       .  A
N327        C390   1.427       .  S
C328        H334   1.081       .  S
C329        N330   1.355       .  A
C329        H331   1.082       .  S
N330        C332   1.351       .  A
N330        C401   1.423       .  S
C332        H333   1.083       .  S
O337       Mg339   2.138       .  S
O337       Mg589   2.168   1_545  S
O337        C860   1.234       .  S
C338        H377   1.081       .  S
C338        O351   1.235       .  S
C338        O375   1.268       .  A
Mg339      O1100   2.171       .  S
Mg339      O1355   2.269       .  S
Mg339      O1326   2.293       .  S
O340      Mg1114   2.169       .  S
O340       Mg365   2.138       .  S
O340       C1337   1.235       .  S
O341        C372   1.267       .  A
O341       Mg365   2.289       .  S
C342        O344   1.274       .  A
C342        O356   1.275       .  A
O343        C371   1.269       .  A
O343       Mg833   2.294   1_545  S
O344       Mg376   2.275       .  S
Mg345       O581   2.168   1_556  S
Mg345       O351   2.137       .  S
Mg345       O831   2.294       .  S
Mg345       O847   2.266       .  S
C346        O384   1.273       .  A
C346        O352   1.273       .  A
O347        C354   1.275       .  A
H348       C1337   1.081       .  S
C349        H862   1.082       .  S
C349        O851   1.235       .  S
C349        O364   1.268   1_565  A
O350        C373   1.269       .  A
O350      Mg1315   2.293   1_455  S
C353        O366   1.271       .  A
C353        O358   1.272       .  A
C354        O381   1.271       .  A
Mg355       O362   2.143       .  S
Mg355       O607   2.162   1_545  S
Mg355       O845   2.292   1_545  S
Mg355       O872   2.270   1_545  S
O357        C361   1.268   1_455  A
O357       Mg843   2.292       .  S
O359        C378   1.272       .  A
O359       Mg833   2.266   1_545  S
O360        C380   1.275       .  A
C361       H1324   1.081       .  S
C361       O1316   1.235       .  S
O362        C373   1.236       .  S
O363       Mg599   2.162   1_556  S
O363       Mg382   2.138       .  S
O363        C837   1.235       .  S
O364       Mg376   2.291       .  S
Mg365       O381   2.258       .  S
O366      Mg1358   2.263       .  S
H367        C860   1.082       .  S
O368      Mg1071   2.171   1_456  S
O368       Mg376   2.147       .  S
O368       C1347   1.235       .  S
H369       C1347   1.081       .  S
H370        C373   1.081       .  S
C371       H1345   1.081       .  S
C371       O1344   1.235       .  S
C372        H855   1.082       .  S
C372        O825   1.234       .  S
H374        C837   1.082       .  S
O375      Mg1358   2.289       .  S
C378        O383   1.276       .  A
O379        C380   1.272       .  A
O379      Mg1315   2.269   1_455  S
Mg382      O1072   2.169   1_456  S
Mg382      O1342   2.263   1_455  S
Mg382      O1351   2.289   1_455  S
O384       Mg843   2.270       .  S
O385       Mg387   2.139       .  S
O385      Mg1369   2.165   1_455  S
O385       C1396   1.235       .  S
C386        H425   1.081       .  S
C386        O399   1.235       .  S
C386        O423   1.268       .  A
Mg387       O904   2.166       .  S
Mg387       O431   2.317       .  S
Mg387       O915   2.278       .  S
Mg387       O886   2.298       .  S
O388       Mg918   2.170       .  S
O388       Mg413   2.128       .  S
O388        C897   1.234       .  S
O389        C420   1.268       .  A
O389       Mg413   2.289       .  S
C390        O392   1.273       .  A
C390        O404   1.273       .  A
O391        C419   1.268       .  A
O391      Mg1369   2.292   1_455  S
O392       Mg424   2.274       .  S
Mg393      O1361   2.165       .  S
Mg393       O399   2.139       .  S
Mg393      O1367   2.292       .  S
Mg393      O1383   2.264       .  S
Mg393       O395   2.286       .  S
C394        O432   1.273       .  A
C394        O400   1.273       .  A
O395        C402   1.273       .  A
H396        C897   1.082       .  S
C397       H1398   1.082       .  S
C397       O1387   1.236       .  S
C397        O412   1.269   1_655  A
O398        C421   1.270       .  A
O398       Mg875   2.298   1_545  S
O399       Mg413   2.173       .  S
O400       Mg430   2.297       .  S
C401        O414   1.271       .  A
C401        O406   1.273       .  A
C402        O429   1.270       .  A
Mg403       O410   2.155       .  S
Mg403      O1387   2.167   1_455  S
Mg403       O404   2.292       .  S
Mg403      O1381   2.286   1_455  S
Mg403      O1408   2.277   1_455  S
O405        C409   1.267   1_545  A
O405      Mg1379   2.286       .  S
O406       Mg413   2.285       .  S
O407        C426   1.271       .  A
O407      Mg1369   2.264   1_455  S
O408        C428   1.277       .  A
O408       Mg424   2.313       .  S
C409        H884   1.082       .  S
C409        O876   1.234       .  S
O410       Mg424   2.169       .  S
O410        C421   1.236       .  S
O411      Mg1379   2.167       .  S
O411       Mg430   2.139       .  S
O411       C1373   1.236       .  S
O412       Mg424   2.295       .  S
Mg413       O429   2.254       .  S
O414       Mg918   2.261       .  S
H415       C1396   1.082       .  S
O416       Mg875   2.166   1_545  S
O416       Mg424   2.143       .  S
O416        C907   1.235   1_545  S
H417        C907   1.082   1_545  S
H418        C421   1.080       .  S
C419        H905   1.082       .  S
C419        O904   1.235       .  S
C420       H1391   1.082       .  S
C420       O1361   1.235       .  S
H422       C1373   1.082       .  S
O423       Mg918   2.289       .  S
C426        O431   1.277       .  A
O427        C428   1.273       .  A
O427       Mg875   2.278   1_545  S
Mg430       O876   2.170   1_545  S
Mg430       O902   2.261   1_545  S
Mg430       O911   2.289   1_545  S
O432      Mg1379   2.277       .  S
C433        C434   1.406       .  A
C433        C438   1.404       .  A
C433        H440   1.080       .  S
C434        C435   1.422       .  A
C435        C436   1.399       .  A
C435        N442   1.436       .  S
C436        C437   1.403       .  A
C436        H441   1.081       .  S
C437        C438   1.422       .  A
C438        N439   1.439       .  S
N439        O443   1.263       .  A
N439        O444   1.262       .  A
N442        O446   1.261       .  A
N442        O445   1.263       .  A
C447        C448   1.407       .  A
C447        C452   1.403       .  A
C447        H454   1.080       .  S
C448        C449   1.419       .  A
C449        C450   1.401       .  A
C449        N456   1.436       .  S
C450        C451   1.407       .  A
C450        H455   1.080       .  S
C451        C452   1.423       .  A
C452        N453   1.440       .  S
N453        O457   1.263       .  A
N453        O458   1.261       .  A
N456        O460   1.262       .  A
N456        O459   1.263       .  A
C461        C462   1.406       .  A
C461        C466   1.405       .  A
C461        H468   1.080       .  S
C462        C463   1.421       .  A
C463        C464   1.400       .  A
C463        N470   1.436       .  S
C464        C465   1.404       .  A
C464        H469   1.081       .  S
C465        C466   1.423       .  A
C466        N467   1.440       .  S
N467        O471   1.263       .  A
N467        O472   1.262       .  A
N470        O474   1.262       .  A
N470        O473   1.263       .  A
C475        C476   1.406       .  A
C475        C480   1.404       .  A
C475        H482   1.083       .  S
C476        C477   1.423       .  A
C477        C478   1.400       .  A
C477        N484   1.436       .  S
C478        C479   1.404       .  A
C478        H483   1.084       .  S
C479        C480   1.420       .  A
C480        N481   1.436       .  S
N481        O485   1.263       .  A
N481        O486   1.262       .  A
N484        O488   1.261       .  A
N484        O487   1.263       .  A
C489        C491   1.540   1_554  S
C489        C493   1.525   1_554  S
C489        C492   1.536   1_554  S
C489        C723   1.535       .  S
C490        C494   1.549       .  S
C490        C496   1.535       .  S
C490        C495   1.555       .  S
C490        C709   1.532       .  S
C491        C499   1.375   1_556  A
C491        C738   1.398       .  A
C492        C503   1.372   1_556  A
C492        C739   1.399       .  A
C493        C507   1.370   1_556  A
C493        C740   1.389       .  A
C494        C735   1.398       .  A
C494        C497   1.387       .  A
C495        C736   1.399       .  A
C495        C501   1.390       .  A
C496        C737   1.389       .  A
C496        C504   1.382       .  A
C497        N498   1.355       .  A
C497        H510   1.082       .  S
N498        C743   1.351       .  A
N498        C622   1.427       .  S
C499        N742   1.351   1_554  A
C499        H500   1.081       .  S
C501        N746   1.357       .  A
C501        H511   1.082       .  S
N502        C745   1.357       .  A
N502        C503   1.351   1_556  A
N502        C830   1.429       .  S
C503        H509   1.080       .  S
C504        N749   1.357       .  A
C504        H506   1.082       .  S
N505        C748   1.357       .  A
N505        C507   1.353   1_556  A
N505        C841   1.425       .  S
C507        H508   1.083       .  S
C512        C514   1.551       .  S
C512        C516   1.556       .  S
C512        C515   1.535       .  S
C512        C720   1.532       .  S
C513        C517   1.541       .  S
C513        C519   1.537       .  S
C513        C518   1.519       .  S
C513        C706   1.534       .  S
C514        C522   1.387       .  A
C514        C517   1.401       .  A
C515        C526   1.383       .  A
C515        C518   1.385       .  A
C516        C530   1.391       .  A
C516        C519   1.400       .  A
C517        C520   1.375       .  A
C518        C524   1.367       .  A
C519        C527   1.373       .  A
C520        N521   1.352       .  A
C520        H533   1.082       .  S
N521        C522   1.356       .  A
N521        C638   1.428       .  S
C522        H523   1.080       .  S
C524        N525   1.351       .  A
C524        H534   1.083       .  S
N525        C526   1.357       .  A
N525        C646   1.422       .  S
C526        H532   1.082       .  S
C527        N528   1.351       .  A
C527        H529   1.082       .  S
N528        C530   1.359       .  A
N528        C672   1.430       .  S
C530        H531   1.082       .  S
C535        C537   1.551       .  S
C535        C539   1.551       .  S
C535        C538   1.544       .  S
C535        C695   1.534       .  S
C536        C540   1.534       .  S
C536        C542   1.525       .  S
C536        C541   1.536       .  S
C536        C678   1.533       .  S
C537        C545   1.387       .  A
C537        C784   1.398       .  A
C538        C549   1.384       .  A
C538        C785   1.395       .  A
C539        C553   1.390       .  A
C539        C786   1.391       .  A
C540        C781   1.398       .  A
C540        C543   1.371       .  A
C541        C782   1.395       .  A
C541        C547   1.374       .  A
C542        C783   1.391       .  A
C542        C550   1.370       .  A
C543        N544   1.350       .  A
C543        H556   1.082       .  S
N544        C789   1.356       .  A
N544        C834   1.425       .  S
C545        N788   1.356       .  A
C545        H546   1.081       .  S
C547        N792   1.353       .  A
C547        H557   1.082       .  S
N548        C791   1.353   1_554  A
N548        C549   1.357       .  A
N548        C598   1.427       .  S
C549        H555   1.082       .  S
C550        N551   1.350       .  A
C550        H552   1.083       .  S
N551        C797   1.358       .  A
N551        C868   1.427       .  S
C553        N795   1.358       .  A
C553        H554   1.082       .  S
C558        C560   1.542       .  S
C558        C562   1.526       .  S
C558        C561   1.534       .  S
C558        C692   1.535       .  S
C559        C563   1.555       .  S
C559        C565   1.541       .  S
C559        C564   1.541       .  S
C559        C681   1.530       .  S
C560        C568   1.374       .  A
C560        C563   1.399       .  A
C561        C572   1.373       .  A
C561        C564   1.394       .  A
C562        C576   1.370       .  A
C562        C565   1.391       .  A
C563        C566   1.390       .  A
C564        C570   1.384       .  A
C565        C573   1.385       .  A
C566        N567   1.357       .  A
C566        H579   1.082       .  S
N567        C568   1.351       .  A
N567        C670   1.429       .  S
C568        H569   1.082       .  S
C570        N571   1.357       .  A
C570        H580   1.083       .  S
N571        C572   1.353       .  A
N571        C634   1.427       .  S
C572        H578   1.081       .  S
C573        N574   1.355       .  A
C573        H575   1.082       .  S
N574        C576   1.351       .  A
N574        C645   1.423       .  S
C576        H577   1.083       .  S
O581       Mg583   2.138       .  S
C582        H621   1.081       .  S
C582        O595   1.235       .  S
C582        O619   1.268       .  A
Mg583      O1832   2.171   1_554  S
Mg583       O871   2.304   1_554  S
Mg583      O1599   2.269       .  S
Mg583      O1570   2.293       .  S
O584      Mg1846   2.169   1_554  S
O584       Mg609   2.138       .  S
O584       C1581   1.235       .  S
O585        C616   1.267   1_565  A
O585       Mg609   2.289       .  S
C586        N746   1.429       .  S
C586        O588   1.274       .  A
C586        O600   1.275       .  A
O587        C615   1.269       .  A
O588       Mg620   2.275       .  S
Mg589       O595   2.137       .  S
Mg589       O835   2.304       .  S
C590        N788   1.425       .  S
C590        O628   1.273       .  A
C590        O596   1.273       .  A
O591        C598   1.275       .  A
O591       Mg833   2.304   1_554  S
H592       C1581   1.081       .  S
C593        O608   1.268       .  A
O594        C617   1.269       .  A
O594      Mg1559   2.293   1_455  S
O595       Mg853   2.172       .  S
O596       Mg870   2.291   1_554  S
C597        N749   1.425       .  S
C597        O610   1.271       .  A
C597        O602   1.272       .  A
C598        O625   1.271       .  A
Mg599       O606   2.143       .  S
Mg599       O844   2.303   1_554  S
O600       Mg843   2.303       .  S
O601        C605   1.268   1_455  A
O602       Mg853   2.286       .  S
O603        C622   1.272       .  A
O604        C624   1.275       .  A
O604       Mg864   2.298   1_554  S
C605       H1568   1.081       .  S
C605       O1560   1.235       .  S
O606       Mg864   2.166   1_554  S
O606        C617   1.236       .  S
O607       Mg626   2.138       .  S
O608       Mg620   2.291       .  S
Mg609       O839   2.172   1_554  S
Mg609       O846   2.286   1_554  S
Mg609       O625   2.258       .  S
O610      Mg1602   2.263       .  S
O612      Mg1803   2.171   1_455  S
O612       Mg620   2.147       .  S
O612       C1591   1.235       .  S
H613       C1591   1.081       .  S
H614        C617   1.081       .  S
C615       H1589   1.081       .  S
C615       O1588   1.235       .  S
O619      Mg1602   2.289       .  S
Mg620       O850   2.166       .  S
Mg620       O848   2.298       .  S
C622        O627   1.276       .  A
O623        C624   1.272       .  A
O623      Mg1559   2.269   1_455  S
C624        N795   1.427       .  S
Mg626      O1804   2.169   1_455  S
Mg626       O840   2.291       .  S
Mg626      O1586   2.263   1_455  S
Mg626      O1595   2.289   1_455  S
O627       Mg827   2.304       .  S
O629       Mg631   2.139       .  S
O629      Mg1613   2.165   1_455  S
O629       C1640   1.235       .  S
C630        H669   1.081       .  S
C630        O643   1.235       .  S
C630        O667   1.268       .  A
Mg631       O675   2.317       .  S
O632       Mg657   2.128       .  S
O633        C664   1.268       .  A
O633       Mg657   2.289       .  S
C634        O636   1.273       .  A
C634        O648   1.273       .  A
O635        C663   1.268       .  A
O635      Mg1613   2.292   1_455  S
O636       Mg668   2.274       .  S
Mg637      O1605   2.165       .  S
Mg637       O643   2.139       .  S
Mg637      O1611   2.292       .  S
Mg637      O1627   2.264       .  S
Mg637       O639   2.286       .  S
C638        O676   1.273       .  A
C638        O644   1.273       .  A
O639        C646   1.273       .  A
C641       H1642   1.082       .  S
C641       O1631   1.236       .  S
C641        O656   1.269   1_655  A
O642        C665   1.270       .  A
O643       Mg657   2.173       .  S
O644       Mg674   2.297       .  S
C645        O658   1.271       .  A
C645        O650   1.273       .  A
C646        O673   1.270       .  A
Mg647       O654   2.155       .  S
Mg647      O1631   2.167   1_455  S
Mg647       O648   2.292       .  S
Mg647      O1625   2.286   1_455  S
Mg647      O1652   2.277   1_455  S
O649        C653   1.267       .  A
O649      Mg1623   2.286       .  S
O650       Mg657   2.285       .  S
O651        C670   1.271       .  A
O651      Mg1613   2.264   1_455  S
O652        C672   1.277       .  A
O652       Mg668   2.313       .  S
O654       Mg668   2.169       .  S
O654        C665   1.236       .  S
O655      Mg1623   2.167       .  S
O655       Mg674   2.139       .  S
O655       C1617   1.236       .  S
O656       Mg668   2.295       .  S
Mg657       O673   2.254       .  S
H659       C1640   1.082       .  S
O660       Mg668   2.143       .  S
H662        C665   1.080       .  S
C664       H1635   1.082       .  S
C664       O1605   1.235       .  S
H666       C1617   1.082       .  S
C670        O675   1.277       .  A
O671        C672   1.273       .  A
O676      Mg1623   2.277       .  S
C677        C678   1.406       .  A
C677        C682   1.404       .  A
C677        H684   1.080       .  S
C678        C679   1.422       .  A
C679        C680   1.399       .  A
C679        N686   1.436       .  S
C680        C681   1.403       .  A
C680        H685   1.081       .  S
C681        C682   1.422       .  A
C682        N683   1.439       .  S
N683        O687   1.263       .  A
N683        O688   1.262       .  A
N686        O690   1.261       .  A
N686        O689   1.263       .  A
C691        C692   1.407       .  A
C691        C696   1.403       .  A
C691        H698   1.080       .  S
C692        C693   1.419       .  A
C693        C694   1.401       .  A
C693        N700   1.436       .  S
C694        C695   1.407       .  A
C694        H699   1.080       .  S
C695        C696   1.423       .  A
C696        N697   1.440       .  S
N697        O701   1.263       .  A
N697        O702   1.261       .  A
N700        O704   1.262       .  A
N700        O703   1.263       .  A
C705        C706   1.406       .  A
C705        C710   1.405       .  A
C705        H712   1.080       .  S
C706        C707   1.421       .  A
C707        C708   1.400       .  A
C707        N714   1.436       .  S
C708        C709   1.404       .  A
C708        H713   1.081       .  S
C709        C710   1.423       .  A
C710        N711   1.440       .  S
N711        O715   1.263       .  A
N711        O716   1.262       .  A
N714        O718   1.262       .  A
N714        O717   1.263       .  A
C719        C720   1.406       .  A
C719        C724   1.404       .  A
C719        H726   1.083       .  S
C720        C721   1.423       .  A
C721        C722   1.400       .  A
C721        N728   1.436       .  S
C722        C723   1.404       .  A
C722        H727   1.084       .  S
C723        C724   1.420       .  A
C724        N725   1.436       .  S
N725        O729   1.263       .  A
N725        O730   1.262       .  A
N728        O732   1.261       .  A
N728        O731   1.263       .  A
C733        C735   1.540       .  S
C733        C737   1.525       .  S
C733        C736   1.536       .  S
C733        C967   1.535       .  S
C734        C738   1.549       .  S
C734        C740   1.535       .  S
C734        C739   1.555       .  S
C734        C953   1.532       .  S
C735        C743   1.375       .  A
C736        C747   1.372       .  A
C737        C751   1.370       .  A
C738        C741   1.387       .  A
C739        C745   1.390       .  A
C740        C748   1.382       .  A
C741        N742   1.355       .  A
C741        H754   1.082       .  S
N742        C866   1.427       .  S
C743        H744   1.081       .  S
C745        H755   1.082       .  S
N746        C747   1.351       .  A
C747        H753   1.080       .  S
C748        H750   1.082       .  S
N749        C751   1.353       .  A
C751        H752   1.083       .  S
C756        C758   1.551       .  S
C756        C760   1.556       .  S
C756        C759   1.535       .  S
C756        C964   1.532       .  S
C757        C761   1.541       .  S
C757        C763   1.537       .  S
C757        C762   1.519       .  S
C757        C950   1.534       .  S
C758        C766   1.387       .  A
C758        C761   1.401       .  A
C759        C770   1.383       .  A
C759        C762   1.385       .  A
C760        C774   1.391       .  A
C760        C763   1.400       .  A
C761        C764   1.375       .  A
C762        C768   1.367       .  A
C763        C771   1.373       .  A
C764        N765   1.352       .  A
C764        H777   1.082       .  S
N765        C766   1.356       .  A
N765        C882   1.428       .  S
C766        H767   1.080       .  S
C768        N769   1.351       .  A
C768        H778   1.083       .  S
N769        C770   1.357       .  A
N769        C890   1.422       .  S
C770        H776   1.082       .  S
C771        N772   1.351       .  A
C771        H773   1.082       .  S
N772        C774   1.359       .  A
N772        C916   1.430       .  S
C774        H775   1.082       .  S
C779        C781   1.551       .  S
C779        C783   1.551       .  S
C779        C782   1.544       .  S
C779        C939   1.534       .  S
C780        C784   1.534   1_556  S
C780        C786   1.525   1_556  S
C780        C785   1.536   1_556  S
C780        C922   1.533       .  S
C781        C789   1.387       .  A
C782        C793   1.384       .  A
C783        C797   1.390       .  A
C784        C787   1.371   1_554  A
C785        C791   1.374   1_554  A
C786        C794   1.370   1_554  A
C787        N788   1.350   1_556  A
C787        H800   1.082       .  S
C789        H790   1.081       .  S
C791        H801   1.082       .  S
N792        C793   1.357       .  A
N792        C842   1.427       .  S
C793        H799   1.082       .  S
C794        N795   1.350   1_556  A
C794        H796   1.083       .  S
C797        H798   1.082       .  S
C802        C804   1.542       .  S
C802        C806   1.526       .  S
C802        C805   1.534       .  S
C802        C936   1.535       .  S
C803        C807   1.555       .  S
C803        C809   1.541       .  S
C803        C808   1.541       .  S
C803        C925   1.530       .  S
C804        C812   1.374       .  A
C804        C807   1.399       .  A
C805        C816   1.373       .  A
C805        C808   1.394       .  A
C806        C820   1.370       .  A
C806        C809   1.391       .  A
C807        C810   1.390       .  A
C808        C814   1.384       .  A
C809        C817   1.385       .  A
C810        N811   1.357       .  A
C810        H823   1.082       .  S
N811        C812   1.351       .  A
N811        C914   1.428       .  S
C812        H813   1.082       .  S
C814        N815   1.357       .  A
C814        H824   1.083       .  S
N815        C816   1.353       .  A
N815        C878   1.427       .  S
C816        H822   1.081       .  S
C817        N818   1.355       .  A
C817        H819   1.082       .  S
N818        C820   1.351       .  A
N818        C889   1.423       .  S
C820        H821   1.083       .  S
O825       Mg827   2.138       .  S
C826        H865   1.081       .  S
C826        O839   1.235       .  S
C826        O863   1.268       .  A
Mg827      O1588   2.171       .  S
Mg827      O1843   2.269       .  S
Mg827      O1814   2.293       .  S
O828      Mg1602   2.169       .  S
O828       Mg853   2.138       .  S
O828       C1825   1.235       .  S
O829        C860   1.267   1_565  A
O829       Mg853   2.289       .  S
C830        O832   1.274       .  A
C830        O844   1.275       .  A
O831        C859   1.269       .  A
O832       Mg864   2.275       .  S
Mg833       O839   2.137       .  S
C834        O872   1.273       .  A
C834        O840   1.273       .  A
O835        C842   1.275       .  A
H836       C1825   1.081       .  S
C837        O852   1.268       .  A
O838        C861   1.269       .  A
O838      Mg1803   2.293   1_455  S
C841        O854   1.271       .  A
C841        O846   1.272       .  A
C842        O869   1.271       .  A
Mg843       O850   2.143       .  S
O845        C849   1.268   1_455  A
O847        C866   1.272       .  A
O848        C868   1.275       .  A
C849       H1812   1.081       .  S
C849       O1804   1.235       .  S
O850        C861   1.236       .  S
O851       Mg870   2.138       .  S
O852       Mg864   2.291       .  S
Mg853       O869   2.258       .  S
O854      Mg1846   2.263       .  S
O856      Mg1559   2.171   1_456  S
O856       Mg864   2.147       .  S
O856       C1835   1.235       .  S
H857       C1835   1.081       .  S
H858        C861   1.081       .  S
C859       H1833   1.081       .  S
C859       O1832   1.235       .  S
O863      Mg1846   2.289       .  S
C866        O871   1.276       .  A
O867        C868   1.272       .  A
O867      Mg1803   2.269   1_455  S
Mg870      O1560   2.169   1_456  S
Mg870      O1830   2.263   1_455  S
Mg870      O1839   2.289   1_455  S
O873       Mg875   2.139       .  S
O873      Mg1857   2.165   1_455  S
O873       C1884   1.235       .  S
C874        H913   1.081       .  S
C874        O887   1.235       .  S
C874        O911   1.268       .  A
Mg875       O919   2.317       .  S
O876       Mg901   2.128       .  S
O877        C908   1.268       .  A
O877       Mg901   2.289       .  S
C878        O880   1.273       .  A
C878        O892   1.273       .  A
O879        C907   1.268       .  A
O879      Mg1857   2.292   1_455  S
O880       Mg912   2.274       .  S
Mg881      O1849   2.165       .  S
Mg881       O887   2.139       .  S
Mg881      O1855   2.292       .  S
Mg881      O1871   2.264       .  S
Mg881       O883   2.286       .  S
C882        O920   1.273       .  A
C882        O888   1.273       .  A
O883        C890   1.273       .  A
C885       H1886   1.082       .  S
C885       O1875   1.236       .  S
C885        O900   1.269   1_655  A
O886        C909   1.270       .  A
O887       Mg901   2.173       .  S
O888       Mg918   2.297       .  S
C889        O902   1.271       .  A
C889        O894   1.273       .  A
C890        O917   1.270       .  A
Mg891       O898   2.155       .  S
Mg891      O1875   2.167   1_455  S
Mg891       O892   2.292       .  S
Mg891      O1869   2.286   1_455  S
Mg891      O1896   2.277   1_455  S
O893        C897   1.267       .  A
O893      Mg1867   2.286       .  S
O894       Mg901   2.285       .  S
O895        C914   1.271       .  A
O895      Mg1857   2.264   1_455  S
O896        C916   1.277       .  A
O896       Mg912   2.313       .  S
O898       Mg912   2.169       .  S
O898        C909   1.236       .  S
O899      Mg1867   2.167       .  S
O899       Mg918   2.139       .  S
O899       C1861   1.236       .  S
O900       Mg912   2.295       .  S
Mg901       O917   2.254       .  S
H903       C1884   1.082       .  S
O904       Mg912   2.143       .  S
H906        C909   1.080       .  S
C908       H1879   1.082       .  S
C908       O1849   1.235       .  S
H910       C1861   1.082       .  S
C914        O919   1.277       .  A
O915        C916   1.273       .  A
O920      Mg1867   2.277       .  S
C921        C922   1.406       .  A
C921        C926   1.404       .  A
C921        H928   1.080       .  S
C922        C923   1.422       .  A
C923        C924   1.399       .  A
C923        N930   1.436       .  S
C924        C925   1.403       .  A
C924        H929   1.081       .  S
C925        C926   1.422       .  A
C926        N927   1.439       .  S
N927        O931   1.263       .  A
N927        O932   1.262       .  A
N930        O934   1.261       .  A
N930        O933   1.263       .  A
C935        C936   1.407       .  A
C935        C940   1.403       .  A
C935        H942   1.080       .  S
C936        C937   1.419       .  A
C937        C938   1.401       .  A
C937        N944   1.436       .  S
C938        C939   1.407       .  A
C938        H943   1.080       .  S
C939        C940   1.423       .  A
C940        N941   1.440       .  S
N941        O945   1.263       .  A
N941        O946   1.261       .  A
N944        O948   1.262       .  A
N944        O947   1.263       .  A
C949        C950   1.406       .  A
C949        C954   1.405       .  A
C949        H956   1.080       .  S
C950        C951   1.421       .  A
C951        C952   1.400       .  A
C951        N958   1.436       .  S
C952        C953   1.404       .  A
C952        H957   1.081       .  S
C953        C954   1.423       .  A
C954        N955   1.440       .  S
N955        O959   1.263       .  A
N955        O960   1.262       .  A
N958        O962   1.262       .  A
N958        O961   1.263       .  A
C963        C964   1.406       .  A
C963        C968   1.404       .  A
C963        H970   1.083       .  S
C964        C965   1.423       .  A
C965        C966   1.400       .  A
C965        N972   1.436       .  S
C966        C967   1.404       .  A
C966        H971   1.084       .  S
C967        C968   1.420       .  A
C968        N969   1.436       .  S
N969        O973   1.263       .  A
N969        O974   1.262       .  A
N972        O976   1.261       .  A
N972        O975   1.263       .  A
C977        C979   1.540   1_554  S
C977        C981   1.525   1_554  S
C977        C980   1.536   1_554  S
C977       C1211   1.535       .  S
C978        C982   1.549       .  S
C978        C984   1.535       .  S
C978        C983   1.555       .  S
C978       C1197   1.532       .  S
C979        C987   1.375   1_556  A
C979       C1226   1.398       .  A
C980        C991   1.372   1_556  A
C980       C1227   1.399       .  A
C981        C995   1.370   1_556  A
C981       C1228   1.389       .  A
C982       C1223   1.398       .  A
C982        C985   1.387       .  A
C983       C1224   1.399       .  A
C983        C989   1.390       .  A
C984       C1225   1.389       .  A
C984        C992   1.382       .  A
C985        N986   1.355       .  A
C985        H998   1.082       .  S
N986       C1231   1.351       .  A
N986       C1110   1.427       .  S
C987       N1230   1.351   1_554  A
C987        H988   1.081       .  S
C989       N1234   1.357       .  A
C989        H999   1.082       .  S
N990       C1233   1.357       .  A
N990        C991   1.351   1_556  A
N990       C1318   1.429       .  S
C991        H997   1.080       .  S
C992       N1237   1.357       .  A
C992        H994   1.082       .  S
N993       C1236   1.357       .  A
N993        C995   1.353   1_556  A
N993       C1329   1.425       .  S
C995        H996   1.083       .  S
C1000      C1002   1.551       .  S
C1000      C1004   1.556       .  S
C1000      C1003   1.535       .  S
C1000      C1208   1.532       .  S
C1001      C1005   1.541       .  S
C1001      C1007   1.537       .  S
C1001      C1006   1.519       .  S
C1001      C1194   1.534       .  S
C1002      C1010   1.387       .  A
C1002      C1005   1.401       .  A
C1003      C1014   1.383       .  A
C1003      C1006   1.385       .  A
C1004      C1018   1.391       .  A
C1004      C1007   1.400       .  A
C1005      C1008   1.375       .  A
C1006      C1012   1.367       .  A
C1007      C1015   1.373       .  A
C1008      N1009   1.352       .  A
C1008      H1021   1.082       .  S
N1009      C1010   1.356       .  A
N1009      C1126   1.428       .  S
C1010      H1011   1.080       .  S
C1012      N1013   1.351       .  A
C1012      H1022   1.083       .  S
N1013      C1014   1.357       .  A
N1013      C1134   1.422       .  S
C1014      H1020   1.082       .  S
C1015      N1016   1.351       .  A
C1015      H1017   1.082       .  S
N1016      C1018   1.359       .  A
N1016      C1160   1.430       .  S
C1018      H1019   1.082       .  S
C1023      C1025   1.551       .  S
C1023      C1027   1.551       .  S
C1023      C1026   1.544       .  S
C1023      C1183   1.534       .  S
C1024      C1028   1.534       .  S
C1024      C1030   1.525       .  S
C1024      C1029   1.536       .  S
C1024      C1166   1.533       .  S
C1025      C1033   1.387       .  A
C1025      C1272   1.398       .  A
C1026      C1037   1.384       .  A
C1026      C1273   1.395       .  A
C1027      C1041   1.390       .  A
C1027      C1274   1.391       .  A
C1028      C1269   1.398       .  A
C1028      C1031   1.371       .  A
C1029      C1270   1.395       .  A
C1029      C1035   1.374       .  A
C1030      C1271   1.391       .  A
C1030      C1038   1.370       .  A
C1031      N1032   1.350       .  A
C1031      H1044   1.082       .  S
N1032      C1277   1.356       .  A
N1032      C1322   1.425       .  S
C1033      N1276   1.356       .  A
C1033      H1034   1.081       .  S
C1035      N1280   1.353       .  A
C1035      H1045   1.082       .  S
N1036      C1279   1.353   1_554  A
N1036      C1037   1.357       .  A
N1036      C1086   1.427       .  S
C1037      H1043   1.082       .  S
C1038      N1039   1.350       .  A
C1038      H1040   1.083       .  S
N1039      C1285   1.358       .  A
N1039      C1356   1.427       .  S
C1041      N1283   1.358       .  A
C1041      H1042   1.082       .  S
C1046      C1048   1.542       .  S
C1046      C1050   1.526       .  S
C1046      C1049   1.534       .  S
C1046      C1180   1.535       .  S
C1047      C1051   1.555       .  S
C1047      C1053   1.541       .  S
C1047      C1052   1.541       .  S
C1047      C1169   1.530       .  S
C1048      C1056   1.374       .  A
C1048      C1051   1.399       .  A
C1049      C1060   1.373       .  A
C1049      C1052   1.394       .  A
C1050      C1064   1.370       .  A
C1050      C1053   1.391       .  A
C1051      C1054   1.390       .  A
C1052      C1058   1.384       .  A
C1053      C1061   1.385       .  A
C1054      N1055   1.357       .  A
C1054      H1067   1.082       .  S
N1055      C1056   1.351       .  A
N1055      C1158   1.429       .  S
C1056      H1057   1.082       .  S
C1058      N1059   1.357       .  A
C1058      H1068   1.083       .  S
N1059      C1060   1.353       .  A
N1059      C1122   1.427       .  S
C1060      H1066   1.081       .  S
C1061      N1062   1.355       .  A
C1061      H1063   1.082       .  S
N1062      C1064   1.351       .  A
N1062      C1133   1.423       .  S
C1064      H1065   1.083       .  S
O1069     Mg1071   2.138       .  S
O1069     Mg1809   2.168   1_544  S
O1069      C1592   1.234       .  S
C1070      H1109   1.082       .  S
C1070      O1083   1.235       .  S
C1070      O1107   1.268       .  A
Mg1071     O1359   2.304   1_554  S
O1072     Mg1097   2.138       .  S
O1073      C1104   1.267       .  A
O1073     Mg1097   2.289       .  S
C1074      N1234   1.429       .  S
C1074      O1076   1.274       .  A
C1074      O1088   1.275       .  A
O1075      C1103   1.269   1_655  A
O1075     Mg1565   2.294   1_545  S
O1076     Mg1108   2.275       .  S
Mg1077     O1801   2.168       .  S
Mg1077     O1083   2.137       .  S
Mg1077     O1563   2.294       .  S
Mg1077     O1579   2.266       .  S
Mg1077     O1323   2.304       .  S
C1078      N1276   1.425       .  S
C1078      O1116   1.273       .  A
C1078      O1084   1.273       .  A
O1079      C1086   1.275       .  A
O1079     Mg1321   2.304   1_554  S
C1081      H1594   1.082       .  S
C1081      O1583   1.235       .  S
C1081      O1096   1.268   1_565  A
O1082      C1105   1.269       .  A
O1083     Mg1341   2.172       .  S
O1084     Mg1358   2.291   1_554  S
C1085      N1237   1.425       .  S
C1085      O1098   1.271       .  A
C1085      O1090   1.272       .  A
C1086      O1113   1.271       .  A
Mg1087     O1094   2.143       .  S
Mg1087     O1827   2.162   1_544  S
Mg1087     O1332   2.303   1_554  S
Mg1087     O1577   2.292   1_545  S
Mg1087     O1604   2.270   1_545  S
O1088     Mg1331   2.303       .  S
O1089      C1093   1.268       .  A
O1089     Mg1575   2.292       .  S
O1090     Mg1341   2.286       .  S
O1091      C1110   1.272       .  A
O1091     Mg1565   2.266   1_545  S
O1092      C1112   1.275       .  A
O1092     Mg1352   2.298   1_554  S
O1094     Mg1352   2.166   1_554  S
O1094      C1105   1.236       .  S
O1095     Mg1819   2.162       .  S
O1095     Mg1114   2.138       .  S
O1095      C1569   1.235       .  S
O1096     Mg1108   2.291       .  S
Mg1097     O1327   2.172   1_554  S
Mg1097     O1334   2.286   1_554  S
Mg1097     O1113   2.258       .  S
H1099      C1592   1.082       .  S
O1100     Mg1108   2.147       .  S
H1102      C1105   1.081       .  S
C1104      H1587   1.082       .  S
C1104      O1557   1.234       .  S
H1106      C1569   1.082       .  S
Mg1108     O1338   2.166       .  S
Mg1108     O1336   2.298       .  S
C1110      O1115   1.276       .  A
O1111      C1112   1.272       .  A
C1112      N1283   1.427       .  S
Mg1114     O1328   2.291       .  S
O1115     Mg1315   2.304       .  S
O1116     Mg1575   2.270       .  S
O1117     Mg1119   2.139       .  S
C1118      H1157   1.081       .  S
C1118      O1131   1.235       .  S
C1118      O1155   1.268       .  A
Mg1119     O1636   2.166       .  S
Mg1119     O1163   2.317       .  S
Mg1119     O1647   2.278       .  S
Mg1119     O1618   2.298       .  S
O1120     Mg1650   2.170       .  S
O1120     Mg1145   2.128       .  S
O1120      C1629   1.234       .  S
O1121      C1152   1.268   1_655  A
O1121     Mg1145   2.289       .  S
C1122      O1124   1.273       .  A
C1122      O1136   1.273       .  A
O1123      C1151   1.268       .  A
O1124     Mg1156   2.274       .  S
Mg1125     O1131   2.139       .  S
Mg1125     O1127   2.286       .  S
C1126      O1164   1.273       .  A
C1126      O1132   1.273       .  A
O1127      C1134   1.273       .  A
H1128      C1629   1.082       .  S
C1129      O1144   1.269       .  A
O1130      C1153   1.270       .  A
O1130     Mg1607   2.298   1_545  S
O1131     Mg1145   2.173       .  S
O1132     Mg1162   2.297       .  S
C1133      O1146   1.271       .  A
C1133      O1138   1.273       .  A
C1134      O1161   1.270       .  A
Mg1135     O1142   2.155       .  S
Mg1135     O1136   2.292       .  S
O1137      C1141   1.267   1_545  A
O1138     Mg1145   2.285       .  S
O1139      C1158   1.271       .  A
O1140      C1160   1.277       .  A
O1140     Mg1156   2.313       .  S
C1141      H1616   1.082       .  S
C1141      O1608   1.234       .  S
O1142     Mg1156   2.169       .  S
O1142      C1153   1.236       .  S
O1143     Mg1162   2.139       .  S
O1144     Mg1156   2.295       .  S
Mg1145     O1161   2.254       .  S
O1146     Mg1650   2.261       .  S
O1148     Mg1607   2.166   1_545  S
O1148     Mg1156   2.143       .  S
O1148      C1639   1.235   1_545  S
H1149      C1639   1.082   1_545  S
H1150      C1153   1.080       .  S
C1151      H1637   1.082       .  S
C1151      O1636   1.235       .  S
O1155     Mg1650   2.289       .  S
C1158      O1163   1.277       .  A
O1159      C1160   1.273       .  A
O1159     Mg1607   2.278   1_545  S
Mg1162     O1608   2.170   1_545  S
Mg1162     O1634   2.261   1_545  S
Mg1162     O1643   2.289   1_545  S
C1165      C1166   1.406       .  A
C1165      C1170   1.404       .  A
C1165      H1172   1.080       .  S
C1166      C1167   1.422       .  A
C1167      C1168   1.399       .  A
C1167      N1174   1.436       .  S
C1168      C1169   1.403       .  A
C1168      H1173   1.081       .  S
C1169      C1170   1.422       .  A
C1170      N1171   1.439       .  S
N1171      O1175   1.263       .  A
N1171      O1176   1.262       .  A
N1174      O1178   1.261       .  A
N1174      O1177   1.263       .  A
C1179      C1180   1.407       .  A
C1179      C1184   1.403       .  A
C1179      H1186   1.080       .  S
C1180      C1181   1.419       .  A
C1181      C1182   1.401       .  A
C1181      N1188   1.436       .  S
C1182      C1183   1.407       .  A
C1182      H1187   1.080       .  S
C1183      C1184   1.423       .  A
C1184      N1185   1.440       .  S
N1185      O1189   1.263       .  A
N1185      O1190   1.261       .  A
N1188      O1192   1.262       .  A
N1188      O1191   1.263       .  A
C1193      C1194   1.406       .  A
C1193      C1198   1.405       .  A
C1193      H1200   1.080       .  S
C1194      C1195   1.421       .  A
C1195      C1196   1.400       .  A
C1195      N1202   1.436       .  S
C1196      C1197   1.404       .  A
C1196      H1201   1.081       .  S
C1197      C1198   1.423       .  A
C1198      N1199   1.440       .  S
N1199      O1203   1.263       .  A
N1199      O1204   1.262       .  A
N1202      O1206   1.262       .  A
N1202      O1205   1.263       .  A
C1207      C1208   1.406       .  A
C1207      C1212   1.404       .  A
C1207      H1214   1.083       .  S
C1208      C1209   1.423       .  A
C1209      C1210   1.400       .  A
C1209      N1216   1.436       .  S
C1210      C1211   1.404       .  A
C1210      H1215   1.084       .  S
C1211      C1212   1.420       .  A
C1212      N1213   1.436       .  S
N1213      O1217   1.263       .  A
N1213      O1218   1.262       .  A
N1216      O1220   1.261       .  A
N1216      O1219   1.263       .  A
C1221      C1223   1.540       .  S
C1221      C1225   1.525       .  S
C1221      C1224   1.536       .  S
C1221      C1455   1.535       .  S
C1222      C1226   1.549       .  S
C1222      C1228   1.535       .  S
C1222      C1227   1.555       .  S
C1222      C1441   1.532       .  S
C1223      C1231   1.375       .  A
C1224      C1235   1.372       .  A
C1225      C1239   1.370       .  A
C1226      C1229   1.387       .  A
C1227      C1233   1.390       .  A
C1228      C1236   1.382       .  A
C1229      N1230   1.355       .  A
C1229      H1242   1.082       .  S
N1230      C1354   1.427       .  S
C1231      H1232   1.081       .  S
C1233      H1243   1.082       .  S
N1234      C1235   1.351       .  A
C1235      H1241   1.080       .  S
C1236      H1238   1.082       .  S
N1237      C1239   1.353       .  A
C1239      H1240   1.083       .  S
C1244      C1246   1.551       .  S
C1244      C1248   1.556       .  S
C1244      C1247   1.535       .  S
C1244      C1452   1.532       .  S
C1245      C1249   1.541       .  S
C1245      C1251   1.537       .  S
C1245      C1250   1.519       .  S
C1245      C1438   1.534       .  S
C1246      C1254   1.387       .  A
C1246      C1249   1.401       .  A
C1247      C1258   1.383       .  A
C1247      C1250   1.385       .  A
C1248      C1262   1.391       .  A
C1248      C1251   1.400       .  A
C1249      C1252   1.375       .  A
C1250      C1256   1.367       .  A
C1251      C1259   1.373       .  A
C1252      N1253   1.352       .  A
C1252      H1265   1.082       .  S
N1253      C1254   1.356       .  A
N1253      C1370   1.428       .  S
C1254      H1255   1.080       .  S
C1256      N1257   1.351       .  A
C1256      H1266   1.083       .  S
N1257      C1258   1.357       .  A
N1257      C1378   1.422       .  S
C1258      H1264   1.082       .  S
C1259      N1260   1.351       .  A
C1259      H1261   1.082       .  S
N1260      C1262   1.359       .  A
N1260      C1404   1.430       .  S
C1262      H1263   1.082       .  S
C1267      C1269   1.551       .  S
C1267      C1271   1.551       .  S
C1267      C1270   1.544       .  S
C1267      C1427   1.534       .  S
C1268      C1272   1.534   1_556  S
C1268      C1274   1.525   1_556  S
C1268      C1273   1.536   1_556  S
C1268      C1410   1.533       .  S
C1269      C1277   1.387       .  A
C1270      C1281   1.384       .  A
C1271      C1285   1.390       .  A
C1272      C1275   1.371   1_554  A
C1273      C1279   1.374   1_554  A
C1274      C1282   1.370   1_554  A
C1275      N1276   1.350   1_556  A
C1275      H1288   1.082       .  S
C1277      H1278   1.081       .  S
C1279      H1289   1.082       .  S
N1280      C1281   1.357       .  A
N1280      C1330   1.427       .  S
C1281      H1287   1.082       .  S
C1282      N1283   1.350   1_556  A
C1282      H1284   1.083       .  S
C1285      H1286   1.082       .  S
C1290      C1292   1.542       .  S
C1290      C1294   1.526       .  S
C1290      C1293   1.534       .  S
C1290      C1424   1.535       .  S
C1291      C1295   1.555       .  S
C1291      C1297   1.541       .  S
C1291      C1296   1.541       .  S
C1291      C1413   1.530       .  S
C1292      C1300   1.374       .  A
C1292      C1295   1.399       .  A
C1293      C1304   1.373       .  A
C1293      C1296   1.394       .  A
C1294      C1308   1.370       .  A
C1294      C1297   1.391       .  A
C1295      C1298   1.390       .  A
C1296      C1302   1.384       .  A
C1297      C1305   1.385       .  A
C1298      N1299   1.357       .  A
C1298      H1311   1.082       .  S
N1299      C1300   1.351       .  A
N1299      C1402   1.428       .  S
C1300      H1301   1.082       .  S
C1302      N1303   1.357       .  A
C1302      H1312   1.083       .  S
N1303      C1304   1.353       .  A
N1303      C1366   1.427       .  S
C1304      H1310   1.081       .  S
C1305      N1306   1.355       .  A
C1305      H1307   1.082       .  S
N1306      C1308   1.351       .  A
N1306      C1377   1.423       .  S
C1308      H1309   1.083       .  S
O1313     Mg1315   2.138       .  S
O1313     Mg1565   2.168   1_545  S
O1313      C1836   1.234       .  S
C1314      H1353   1.081       .  S
C1314      O1327   1.235       .  S
C1314      O1351   1.268       .  A
O1316     Mg1341   2.138       .  S
O1317      C1348   1.267       .  A
O1317     Mg1341   2.289       .  S
C1318      O1320   1.274       .  A
C1318      O1332   1.275       .  A
O1319      C1347   1.269   1_655  A
O1319     Mg1809   2.294   1_545  S
O1320     Mg1352   2.275       .  S
Mg1321     O1557   2.168   1_556  S
Mg1321     O1327   2.137       .  S
Mg1321     O1807   2.294       .  S
Mg1321     O1823   2.266       .  S
C1322      O1360   1.273       .  A
C1322      O1328   1.273       .  A
O1323      C1330   1.275       .  A
C1325      H1838   1.082       .  S
C1325      O1827   1.235       .  S
C1325      O1340   1.268   1_565  A
O1326      C1349   1.269       .  A
C1329      O1342   1.271       .  A
C1329      O1334   1.272       .  A
C1330      O1357   1.271       .  A
Mg1331     O1338   2.143       .  S
Mg1331     O1583   2.162   1_545  S
Mg1331     O1821   2.292   1_545  S
Mg1331     O1848   2.270   1_545  S
O1333      C1337   1.268       .  A
O1333     Mg1819   2.292       .  S
O1335      C1354   1.272       .  A
O1335     Mg1809   2.266   1_545  S
O1336      C1356   1.275       .  A
O1338      C1349   1.236       .  S
O1339     Mg1575   2.162   1_556  S
O1339     Mg1358   2.138       .  S
O1339      C1813   1.235       .  S
O1340     Mg1352   2.291       .  S
Mg1341     O1357   2.258       .  S
H1343      C1836   1.082       .  S
O1344     Mg1352   2.147       .  S
H1346      C1349   1.081       .  S
C1348      H1831   1.082       .  S
C1348      O1801   1.234       .  S
H1350      C1813   1.082       .  S
C1354      O1359   1.276       .  A
O1355      C1356   1.272       .  A
O1360     Mg1819   2.270       .  S
O1361     Mg1363   2.139       .  S
C1362      H1401   1.081       .  S
C1362      O1375   1.235       .  S
C1362      O1399   1.268       .  A
Mg1363     O1880   2.166       .  S
Mg1363     O1407   2.317       .  S
Mg1363     O1891   2.278       .  S
Mg1363     O1862   2.298       .  S
O1364     Mg1894   2.170       .  S
O1364     Mg1389   2.128       .  S
O1364      C1873   1.234       .  S
O1365      C1396   1.268   1_655  A
O1365     Mg1389   2.289       .  S
C1366      O1368   1.273       .  A
C1366      O1380   1.273       .  A
O1367      C1395   1.268       .  A
O1368     Mg1400   2.274       .  S
Mg1369     O1375   2.139       .  S
Mg1369     O1371   2.286       .  S
C1370      O1408   1.273       .  A
C1370      O1376   1.273       .  A
O1371      C1378   1.273       .  A
H1372      C1873   1.082       .  S
C1373      O1388   1.269       .  A
O1374      C1397   1.270       .  A
O1374     Mg1851   2.298   1_545  S
O1375     Mg1389   2.173       .  S
O1376     Mg1406   2.297       .  S
C1377      O1390   1.271       .  A
C1377      O1382   1.273       .  A
C1378      O1405   1.270       .  A
Mg1379     O1386   2.155       .  S
Mg1379     O1380   2.292       .  S
O1381      C1385   1.267   1_545  A
O1382     Mg1389   2.285       .  S
O1383      C1402   1.271       .  A
O1384      C1404   1.277       .  A
O1384     Mg1400   2.313       .  S
C1385      H1860   1.082       .  S
C1385      O1852   1.234       .  S
O1386     Mg1400   2.169       .  S
O1386      C1397   1.236       .  S
O1387     Mg1406   2.139       .  S
O1388     Mg1400   2.295       .  S
Mg1389     O1405   2.254       .  S
O1390     Mg1894   2.261       .  S
O1392     Mg1851   2.166   1_545  S
O1392     Mg1400   2.143       .  S
O1392      C1883   1.235   1_545  S
H1393      C1883   1.082   1_545  S
H1394      C1397   1.080       .  S
C1395      H1881   1.082       .  S
C1395      O1880   1.235       .  S
O1399     Mg1894   2.289       .  S
C1402      O1407   1.277       .  A
O1403      C1404   1.273       .  A
O1403     Mg1851   2.278   1_545  S
Mg1406     O1852   2.170   1_545  S
Mg1406     O1878   2.261   1_545  S
Mg1406     O1887   2.289   1_545  S
C1409      C1410   1.406       .  A
C1409      C1414   1.404       .  A
C1409      H1416   1.080       .  S
C1410      C1411   1.422       .  A
C1411      C1412   1.399       .  A
C1411      N1418   1.436       .  S
C1412      C1413   1.403       .  A
C1412      H1417   1.081       .  S
C1413      C1414   1.422       .  A
C1414      N1415   1.439       .  S
N1415      O1419   1.263       .  A
N1415      O1420   1.262       .  A
N1418      O1422   1.261       .  A
N1418      O1421   1.263       .  A
C1423      C1424   1.407       .  A
C1423      C1428   1.403       .  A
C1423      H1430   1.080       .  S
C1424      C1425   1.419       .  A
C1425      C1426   1.401       .  A
C1425      N1432   1.436       .  S
C1426      C1427   1.407       .  A
C1426      H1431   1.080       .  S
C1427      C1428   1.423       .  A
C1428      N1429   1.440       .  S
N1429      O1433   1.263       .  A
N1429      O1434   1.261       .  A
N1432      O1436   1.262       .  A
N1432      O1435   1.263       .  A
C1437      C1438   1.406       .  A
C1437      C1442   1.405       .  A
C1437      H1444   1.080       .  S
C1438      C1439   1.421       .  A
C1439      C1440   1.400       .  A
C1439      N1446   1.436       .  S
C1440      C1441   1.404       .  A
C1440      H1445   1.081       .  S
C1441      C1442   1.423       .  A
C1442      N1443   1.440       .  S
N1443      O1447   1.263       .  A
N1443      O1448   1.262       .  A
N1446      O1450   1.262       .  A
N1446      O1449   1.263       .  A
C1451      C1452   1.406       .  A
C1451      C1456   1.404       .  A
C1451      H1458   1.083       .  S
C1452      C1453   1.423       .  A
C1453      C1454   1.400       .  A
C1453      N1460   1.436       .  S
C1454      C1455   1.404       .  A
C1454      H1459   1.084       .  S
C1455      C1456   1.420       .  A
C1456      N1457   1.436       .  S
N1457      O1461   1.263       .  A
N1457      O1462   1.262       .  A
N1460      O1464   1.261       .  A
N1460      O1463   1.263       .  A
C1465      C1467   1.540   1_554  S
C1465      C1469   1.525   1_554  S
C1465      C1468   1.536   1_554  S
C1465      C1699   1.535       .  S
C1466      C1470   1.549       .  S
C1466      C1472   1.535       .  S
C1466      C1471   1.555       .  S
C1466      C1685   1.532       .  S
C1467      C1475   1.375   1_556  A
C1467      C1714   1.398       .  A
C1468      C1479   1.372   1_556  A
C1468      C1715   1.399       .  A
C1469      C1483   1.370   1_556  A
C1469      C1716   1.389       .  A
C1470      C1711   1.398       .  A
C1470      C1473   1.387       .  A
C1471      C1712   1.399       .  A
C1471      C1477   1.390       .  A
C1472      C1713   1.389       .  A
C1472      C1480   1.382       .  A
C1473      N1474   1.355       .  A
C1473      H1486   1.082       .  S
N1474      C1719   1.351       .  A
N1474      C1598   1.427       .  S
C1475      N1718   1.351   1_554  A
C1475      H1476   1.081       .  S
C1477      N1722   1.357       .  A
C1477      H1487   1.082       .  S
N1478      C1721   1.357       .  A
N1478      C1479   1.351   1_556  A
N1478      C1806   1.429       .  S
C1479      H1485   1.080       .  S
C1480      N1725   1.357       .  A
C1480      H1482   1.082       .  S
N1481      C1724   1.357       .  A
N1481      C1483   1.353   1_556  A
N1481      C1817   1.425       .  S
C1483      H1484   1.083       .  S
C1488      C1490   1.551       .  S
C1488      C1492   1.556       .  S
C1488      C1491   1.535       .  S
C1488      C1696   1.532       .  S
C1489      C1493   1.541       .  S
C1489      C1495   1.537       .  S
C1489      C1494   1.519       .  S
C1489      C1682   1.534       .  S
C1490      C1498   1.387       .  A
C1490      C1493   1.401       .  A
C1491      C1502   1.383       .  A
C1491      C1494   1.385       .  A
C1492      C1506   1.391       .  A
C1492      C1495   1.400       .  A
C1493      C1496   1.375       .  A
C1494      C1500   1.367       .  A
C1495      C1503   1.373       .  A
C1496      N1497   1.352       .  A
C1496      H1509   1.082       .  S
N1497      C1498   1.356       .  A
N1497      C1614   1.428       .  S
C1498      H1499   1.080       .  S
C1500      N1501   1.351       .  A
C1500      H1510   1.083       .  S
N1501      C1502   1.357       .  A
N1501      C1622   1.422       .  S
C1502      H1508   1.082       .  S
C1503      N1504   1.351       .  A
C1503      H1505   1.082       .  S
N1504      C1506   1.359       .  A
N1504      C1648   1.430       .  S
C1506      H1507   1.082       .  S
C1511      C1513   1.551       .  S
C1511      C1515   1.551       .  S
C1511      C1514   1.544       .  S
C1511      C1671   1.534       .  S
C1512      C1516   1.534       .  S
C1512      C1518   1.525       .  S
C1512      C1517   1.536       .  S
C1512      C1654   1.533       .  S
C1513      C1521   1.387       .  A
C1513      C1760   1.398       .  A
C1514      C1525   1.384       .  A
C1514      C1761   1.395       .  A
C1515      C1529   1.390       .  A
C1515      C1762   1.391       .  A
C1516      C1757   1.398       .  A
C1516      C1519   1.371       .  A
C1517      C1758   1.395       .  A
C1517      C1523   1.374       .  A
C1518      C1759   1.391       .  A
C1518      C1526   1.370       .  A
C1519      N1520   1.350       .  A
C1519      H1532   1.082       .  S
N1520      C1765   1.356       .  A
N1520      C1810   1.425       .  S
C1521      N1764   1.356       .  A
C1521      H1522   1.081       .  S
C1523      N1768   1.353       .  A
C1523      H1533   1.082       .  S
N1524      C1767   1.353   1_554  A
N1524      C1525   1.357       .  A
N1524      C1574   1.427       .  S
C1525      H1531   1.082       .  S
C1526      N1527   1.350       .  A
C1526      H1528   1.083       .  S
N1527      C1773   1.358       .  A
N1527      C1844   1.427       .  S
C1529      N1771   1.358       .  A
C1529      H1530   1.082       .  S
C1534      C1536   1.542       .  S
C1534      C1538   1.526       .  S
C1534      C1537   1.534       .  S
C1534      C1668   1.535       .  S
C1535      C1539   1.555       .  S
C1535      C1541   1.541       .  S
C1535      C1540   1.541       .  S
C1535      C1657   1.530       .  S
C1536      C1544   1.374       .  A
C1536      C1539   1.399       .  A
C1537      C1548   1.373       .  A
C1537      C1540   1.394       .  A
C1538      C1552   1.370       .  A
C1538      C1541   1.391       .  A
C1539      C1542   1.390       .  A
C1540      C1546   1.384       .  A
C1541      C1549   1.385       .  A
C1542      N1543   1.357       .  A
C1542      H1555   1.082       .  S
N1543      C1544   1.351       .  A
N1543      C1646   1.429       .  S
C1544      H1545   1.082       .  S
C1546      N1547   1.357       .  A
C1546      H1556   1.083       .  S
N1547      C1548   1.353       .  A
N1547      C1610   1.427       .  S
C1548      H1554   1.081       .  S
C1549      N1550   1.355       .  A
C1549      H1551   1.082       .  S
N1550      C1552   1.351       .  A
N1550      C1621   1.423       .  S
C1552      H1553   1.083       .  S
O1557     Mg1559   2.138       .  S
C1558      H1597   1.081       .  S
C1558      O1571   1.235       .  S
C1558      O1595   1.268       .  A
Mg1559     O1847   2.304   1_554  S
O1560     Mg1585   2.138       .  S
O1561      C1592   1.267   1_565  A
O1561     Mg1585   2.289       .  S
C1562      N1722   1.429       .  S
C1562      O1564   1.274       .  A
C1562      O1576   1.275       .  A
O1563      C1591   1.269   1_655  A
O1564     Mg1596   2.275       .  S
Mg1565     O1571   2.137       .  S
Mg1565     O1811   2.304       .  S
C1566      N1764   1.425       .  S
C1566      O1604   1.273       .  A
C1566      O1572   1.273       .  A
O1567      C1574   1.275       .  A
O1567     Mg1809   2.304   1_554  S
C1569      O1584   1.268       .  A
O1570      C1593   1.269       .  A
O1571     Mg1829   2.172       .  S
O1572     Mg1846   2.291   1_554  S
C1573      N1725   1.425       .  S
C1573      O1586   1.271       .  A
C1573      O1578   1.272       .  A
C1574      O1601   1.271       .  A
Mg1575     O1582   2.143       .  S
Mg1575     O1820   2.303   1_554  S
O1576     Mg1819   2.303       .  S
O1577      C1581   1.268       .  A
O1578     Mg1829   2.286       .  S
O1579      C1598   1.272       .  A
O1580      C1600   1.275       .  A
O1580     Mg1840   2.298   1_554  S
O1582     Mg1840   2.166   1_554  S
O1582      C1593   1.236       .  S
O1583     Mg1602   2.138       .  S
O1584     Mg1596   2.291       .  S
Mg1585     O1815   2.172   1_554  S
Mg1585     O1822   2.286   1_554  S
Mg1585     O1601   2.258       .  S
O1588     Mg1596   2.147       .  S
H1590      C1593   1.081       .  S
Mg1596     O1826   2.166       .  S
Mg1596     O1824   2.298       .  S
C1598      O1603   1.276       .  A
O1599      C1600   1.272       .  A
C1600      N1771   1.427       .  S
Mg1602     O1816   2.291       .  S
O1603     Mg1803   2.304       .  S
O1605     Mg1607   2.139       .  S
C1606      H1645   1.081       .  S
C1606      O1619   1.235       .  S
C1606      O1643   1.268       .  A
Mg1607     O1651   2.317       .  S
O1608     Mg1633   2.128       .  S
O1609      C1640   1.268   1_655  A
O1609     Mg1633   2.289       .  S
C1610      O1612   1.273       .  A
C1610      O1624   1.273       .  A
O1611      C1639   1.268       .  A
O1612     Mg1644   2.274       .  S
Mg1613     O1619   2.139       .  S
Mg1613     O1615   2.286       .  S
C1614      O1652   1.273       .  A
C1614      O1620   1.273       .  A
O1615      C1622   1.273       .  A
C1617      O1632   1.269       .  A
O1618      C1641   1.270       .  A
O1619     Mg1633   2.173       .  S
O1620     Mg1650   2.297       .  S
C1621      O1634   1.271       .  A
C1621      O1626   1.273       .  A
C1622      O1649   1.270       .  A
Mg1623     O1630   2.155       .  S
Mg1623     O1624   2.292       .  S
O1625      C1629   1.267       .  A
O1626     Mg1633   2.285       .  S
O1627      C1646   1.271       .  A
O1628      C1648   1.277       .  A
O1628     Mg1644   2.313       .  S
O1630     Mg1644   2.169       .  S
O1630      C1641   1.236       .  S
O1631     Mg1650   2.139       .  S
O1632     Mg1644   2.295       .  S
Mg1633     O1649   2.254       .  S
O1636     Mg1644   2.143       .  S
H1638      C1641   1.080       .  S
C1646      O1651   1.277       .  A
O1647      C1648   1.273       .  A
C1653      C1654   1.406       .  A
C1653      C1658   1.404       .  A
C1653      H1660   1.080       .  S
C1654      C1655   1.422       .  A
C1655      C1656   1.399       .  A
C1655      N1662   1.436       .  S
C1656      C1657   1.403       .  A
C1656      H1661   1.081       .  S
C1657      C1658   1.422       .  A
C1658      N1659   1.439       .  S
N1659      O1663   1.263       .  A
N1659      O1664   1.262       .  A
N1662      O1666   1.261       .  A
N1662      O1665   1.263       .  A
C1667      C1668   1.407       .  A
C1667      C1672   1.403       .  A
C1667      H1674   1.080       .  S
C1668      C1669   1.419       .  A
C1669      C1670   1.401       .  A
C1669      N1676   1.436       .  S
C1670      C1671   1.407       .  A
C1670      H1675   1.080       .  S
C1671      C1672   1.423       .  A
C1672      N1673   1.440       .  S
N1673      O1677   1.263       .  A
N1673      O1678   1.261       .  A
N1676      O1680   1.262       .  A
N1676      O1679   1.263       .  A
C1681      C1682   1.406       .  A
C1681      C1686   1.405       .  A
C1681      H1688   1.080       .  S
C1682      C1683   1.421       .  A
C1683      C1684   1.400       .  A
C1683      N1690   1.436       .  S
C1684      C1685   1.404       .  A
C1684      H1689   1.081       .  S
C1685      C1686   1.423       .  A
C1686      N1687   1.440       .  S
N1687      O1691   1.263       .  A
N1687      O1692   1.262       .  A
N1690      O1694   1.262       .  A
N1690      O1693   1.263       .  A
C1695      C1696   1.406       .  A
C1695      C1700   1.404       .  A
C1695      H1702   1.083       .  S
C1696      C1697   1.423       .  A
C1697      C1698   1.400       .  A
C1697      N1704   1.436       .  S
C1698      C1699   1.404       .  A
C1698      H1703   1.084       .  S
C1699      C1700   1.420       .  A
C1700      N1701   1.436       .  S
N1701      O1705   1.263       .  A
N1701      O1706   1.262       .  A
N1704      O1708   1.261       .  A
N1704      O1707   1.263       .  A
C1709      C1711   1.540       .  S
C1709      C1713   1.525       .  S
C1709      C1712   1.536       .  S
C1709      C1943   1.535       .  S
C1710      C1714   1.549       .  S
C1710      C1716   1.535       .  S
C1710      C1715   1.555       .  S
C1710      C1929   1.532       .  S
C1711      C1719   1.375       .  A
C1712      C1723   1.372       .  A
C1713      C1727   1.370       .  A
C1714      C1717   1.387       .  A
C1715      C1721   1.390       .  A
C1716      C1724   1.382       .  A
C1717      N1718   1.355       .  A
C1717      H1730   1.082       .  S
N1718      C1842   1.427       .  S
C1719      H1720   1.081       .  S
C1721      H1731   1.082       .  S
N1722      C1723   1.351       .  A
C1723      H1729   1.080       .  S
C1724      H1726   1.082       .  S
N1725      C1727   1.353       .  A
C1727      H1728   1.083       .  S
C1732      C1734   1.551       .  S
C1732      C1736   1.556       .  S
C1732      C1735   1.535       .  S
C1732      C1940   1.532       .  S
C1733      C1737   1.541       .  S
C1733      C1739   1.537       .  S
C1733      C1738   1.519       .  S
C1733      C1926   1.534       .  S
C1734      C1742   1.387       .  A
C1734      C1737   1.401       .  A
C1735      C1746   1.383       .  A
C1735      C1738   1.385       .  A
C1736      C1750   1.391       .  A
C1736      C1739   1.400       .  A
C1737      C1740   1.375       .  A
C1738      C1744   1.367       .  A
C1739      C1747   1.373       .  A
C1740      N1741   1.352       .  A
C1740      H1753   1.082       .  S
N1741      C1742   1.356       .  A
N1741      C1858   1.428       .  S
C1742      H1743   1.080       .  S
C1744      N1745   1.351       .  A
C1744      H1754   1.083       .  S
N1745      C1746   1.357       .  A
N1745      C1866   1.422       .  S
C1746      H1752   1.082       .  S
C1747      N1748   1.351       .  A
C1747      H1749   1.082       .  S
N1748      C1750   1.359       .  A
N1748      C1892   1.430       .  S
C1750      H1751   1.082       .  S
C1755      C1757   1.551       .  S
C1755      C1759   1.551       .  S
C1755      C1758   1.544       .  S
C1755      C1915   1.534       .  S
C1756      C1760   1.534   1_556  S
C1756      C1762   1.525   1_556  S
C1756      C1761   1.536   1_556  S
C1756      C1898   1.533       .  S
C1757      C1765   1.387       .  A
C1758      C1769   1.384       .  A
C1759      C1773   1.390       .  A
C1760      C1763   1.371   1_554  A
C1761      C1767   1.374   1_554  A
C1762      C1770   1.370   1_554  A
C1763      N1764   1.350   1_556  A
C1763      H1776   1.082       .  S
C1765      H1766   1.081       .  S
C1767      H1777   1.082       .  S
N1768      C1769   1.357       .  A
N1768      C1818   1.427       .  S
C1769      H1775   1.082       .  S
C1770      N1771   1.350   1_556  A
C1770      H1772   1.083       .  S
C1773      H1774   1.082       .  S
C1778      C1780   1.542       .  S
C1778      C1782   1.526       .  S
C1778      C1781   1.534       .  S
C1778      C1912   1.535       .  S
C1779      C1783   1.555       .  S
C1779      C1785   1.541       .  S
C1779      C1784   1.541       .  S
C1779      C1901   1.530       .  S
C1780      C1788   1.374       .  A
C1780      C1783   1.399       .  A
C1781      C1792   1.373       .  A
C1781      C1784   1.394       .  A
C1782      C1796   1.370       .  A
C1782      C1785   1.391       .  A
C1783      C1786   1.390       .  A
C1784      C1790   1.384       .  A
C1785      C1793   1.385       .  A
C1786      N1787   1.357       .  A
C1786      H1799   1.082       .  S
N1787      C1788   1.351       .  A
N1787      C1890   1.429       .  S
C1788      H1789   1.082       .  S
C1790      N1791   1.357       .  A
C1790      H1800   1.083       .  S
N1791      C1792   1.353       .  A
N1791      C1854   1.427       .  S
C1792      H1798   1.081       .  S
C1793      N1794   1.355       .  A
C1793      H1795   1.082       .  S
N1794      C1796   1.351       .  A
N1794      C1865   1.423       .  S
C1796      H1797   1.083       .  S
O1801     Mg1803   2.138       .  S
C1802      H1841   1.082       .  S
C1802      O1815   1.235       .  S
C1802      O1839   1.268       .  A
O1804     Mg1829   2.138       .  S
O1805      C1836   1.267   1_565  A
O1805     Mg1829   2.289       .  S
C1806      O1808   1.274       .  A
C1806      O1820   1.275       .  A
O1807      C1835   1.269   1_655  A
O1808     Mg1840   2.275       .  S
Mg1809     O1815   2.137       .  S
C1810      O1848   1.273       .  A
C1810      O1816   1.273       .  A
O1811      C1818   1.275       .  A
C1813      O1828   1.268       .  A
O1814      C1837   1.269       .  A
C1817      O1830   1.271       .  A
C1817      O1822   1.272       .  A
C1818      O1845   1.271       .  A
Mg1819     O1826   2.143       .  S
O1821      C1825   1.268       .  A
O1823      C1842   1.272       .  A
O1824      C1844   1.275       .  A
O1826      C1837   1.236       .  S
O1827     Mg1846   2.138       .  S
O1828     Mg1840   2.291       .  S
Mg1829     O1845   2.258       .  S
O1832     Mg1840   2.147       .  S
H1834      C1837   1.081       .  S
C1842      O1847   1.276       .  A
O1843      C1844   1.272       .  A
O1849     Mg1851   2.139       .  S
C1850      H1889   1.081       .  S
C1850      O1863   1.235       .  S
C1850      O1887   1.268       .  A
Mg1851     O1895   2.317       .  S
O1852     Mg1877   2.128       .  S
O1853      C1884   1.268   1_655  A
O1853     Mg1877   2.289       .  S
C1854      O1856   1.273       .  A
C1854      O1868   1.273       .  A
O1855      C1883   1.268       .  A
O1856     Mg1888   2.274       .  S
Mg1857     O1863   2.139       .  S
Mg1857     O1859   2.286       .  S
C1858      O1896   1.273       .  A
C1858      O1864   1.273       .  A
O1859      C1866   1.273       .  A
C1861      O1876   1.269       .  A
O1862      C1885   1.270       .  A
O1863     Mg1877   2.173       .  S
O1864     Mg1894   2.297       .  S
C1865      O1878   1.271       .  A
C1865      O1870   1.273       .  A
C1866      O1893   1.270       .  A
Mg1867     O1874   2.155       .  S
Mg1867     O1868   2.292       .  S
O1869      C1873   1.267       .  A
O1870     Mg1877   2.285       .  S
O1871      C1890   1.271       .  A
O1872      C1892   1.277       .  A
O1872     Mg1888   2.313       .  S
O1874     Mg1888   2.169       .  S
O1874      C1885   1.236       .  S
O1875     Mg1894   2.139       .  S
O1876     Mg1888   2.295       .  S
Mg1877     O1893   2.254       .  S
O1880     Mg1888   2.143       .  S
H1882      C1885   1.080       .  S
C1890      O1895   1.277       .  A
O1891      C1892   1.273       .  A
C1897      C1898   1.406       .  A
C1897      C1902   1.404       .  A
C1897      H1904   1.080       .  S
C1898      C1899   1.422       .  A
C1899      C1900   1.399       .  A
C1899      N1906   1.436       .  S
C1900      C1901   1.403       .  A
C1900      H1905   1.081       .  S
C1901      C1902   1.422       .  A
C1902      N1903   1.439       .  S
N1903      O1907   1.263       .  A
N1903      O1908   1.262       .  A
N1906      O1910   1.261       .  A
N1906      O1909   1.263       .  A
C1911      C1912   1.407       .  A
C1911      C1916   1.403       .  A
C1911      H1918   1.080       .  S
C1912      C1913   1.419       .  A
C1913      C1914   1.401       .  A
C1913      N1920   1.436       .  S
C1914      C1915   1.407       .  A
C1914      H1919   1.080       .  S
C1915      C1916   1.423       .  A
C1916      N1917   1.440       .  S
N1917      O1921   1.263       .  A
N1917      O1922   1.261       .  A
N1920      O1924   1.262       .  A
N1920      O1923   1.263       .  A
C1925      C1926   1.406       .  A
C1925      C1930   1.405       .  A
C1925      H1932   1.080       .  S
C1926      C1927   1.421       .  A
C1927      C1928   1.400       .  A
C1927      N1934   1.436       .  S
C1928      C1929   1.404       .  A
C1928      H1933   1.081       .  S
C1929      C1930   1.423       .  A
C1930      N1931   1.440       .  S
N1931      O1935   1.263       .  A
N1931      O1936   1.262       .  A
N1934      O1938   1.262       .  A
N1934      O1937   1.263       .  A
C1939      C1940   1.406       .  A
C1939      C1944   1.404       .  A
C1939      H1946   1.083       .  S
C1940      C1941   1.423       .  A
C1941      C1942   1.400       .  A
C1941      N1948   1.436       .  S
C1942      C1943   1.404       .  A
C1942      H1947   1.084       .  S
C1943      C1944   1.420       .  A
C1944      N1945   1.436       .  S
N1945      O1949   1.263       .  A
N1945      O1950   1.262       .  A
N1948      O1952   1.261       .  A
N1948      O1951   1.263       .  A
