geometry optimzed in LAMMPS
_audit_creation_date              2020-12-01 
_audit_creation_method            'lammps2cif' 
_symmetry_space_group_name_H-M    'P1' 
_symmetry_Int_Tables_number       1 
_symmetry_cell_setting            triclinic 
loop_ 
_symmetry_equiv_pos_as_xyz 
  x,y,z 
_cell_length_a                    51.85842745 
_cell_length_b                    51.81891967683826 
_cell_length_c                    25.24530487911439 
_cell_angle_alpha                 90.075012771609 
_cell_angle_beta                  90.0340490347802 
_cell_angle_gamma                 119.93608266380275 
loop_ 
_atom_site_label 
_atom_site_type_symbol 
_atom_site_fract_x 
_atom_site_fract_y 
_atom_site_fract_z 
_atom_site_charge 
N1          N  0.99771216  0.21758412  0.04731664    -0.35600
N2          N  0.50130699  0.27487748  0.06279326    -0.56200
N3          N  0.99846296  0.28114072  0.94808664    -0.35600
N4          N  0.99806433  0.22537735  0.93239207    -0.56200
C5          C  0.50486737  0.22210665  0.09952516     0.27900
C6          C  0.00283222  0.19574298  0.03027866     0.27900
C7          C  0.50519433  0.30865396  0.96457827     0.27900
C8          C  0.00403934  0.28276798  0.89538004     0.27900
C9          C  0.49746946  0.26558753  0.11371445     0.36600
C10         C  0.49716153  0.29866042  0.06158310     0.36600
C11         C  0.99301038  0.19712335  0.93369702     0.36600
C12         C  0.99403143  0.23088928  0.88158016     0.36600
C13         C  0.01441305  0.20272339  0.11589122    -0.20900
C14         C  0.01301675  0.18603205  0.07234996    -0.20900
C15         C  0.01493540  0.32798593  0.92168094    -0.20900
C16         C  0.01418074  0.31163194  0.87808396    -0.20900
C17         C  0.49084430  0.28358262  0.14489551    -0.22000
C18         C  0.49078902  0.30458990  0.11193652    -0.22000
C19         C  0.98588077  0.18467912  0.88342417    -0.22000
C20         C  0.98651516  0.20604502  0.85043972    -0.22000
C21         C  0.50198948  0.24249279  0.13315306    -0.17300
C22         C  0.99716019  0.18331129  0.97860158    -0.17300
C23         C  0.99914574  0.25868554  0.86211188    -0.17300
C24         C  0.50135069  0.31648526  0.01656969    -0.17300
H25         H  0.52150852  0.20070335  0.15525251     0.15600
H26         H  0.01885105  0.16868294  0.07180405     0.15600
H27         H  0.52161354  0.35134398  0.92162370     0.15600
H28         H  0.02028740  0.32004134  0.83812768     0.15600
H29         H  0.48677899  0.28198939  0.18713370     0.13900
H30         H  0.48685708  0.32241150  0.12381108     0.13900
H31         H  0.98124178  0.16268962  0.87155124     0.13900
H32         H  0.98233908  0.20368395  0.80819942     0.13900
H33         H  0.98699921  0.22657624  0.02594590     0.27100
H34         H  0.98766213  0.26181737  0.97036842     0.27100
N35         N  0.99927448  0.21892404  0.44830963    -0.35600
N36         N  0.00162922  0.27564909  0.43261329    -0.56200
N37         N  0.99848575  0.28188254  0.54736821    -0.35600
N38         N  0.99946496  0.22685373  0.56311842    -0.56200
C39         C  0.00606589  0.22320188  0.39601492     0.27900
C40         C  0.00457613  0.19722006  0.46529919     0.27900
C41         C  0.00471989  0.30922535  0.53076700     0.27900
C42         C  0.00433238  0.28379570  0.60002252     0.27900
C43         C  0.99773042  0.26610261  0.38176619     0.36600
C44         C  0.99638886  0.29874532  0.43387376     0.36600
C45         C  0.99473915  0.19872074  0.56181711     0.36600
C46         C  0.99503097  0.23221512  0.61379169     0.36600
C47         C  0.01550103  0.20374233  0.37946838    -0.20900
C48         C  0.01447189  0.18729972  0.42306300    -0.20900
C49         C  0.01434578  0.32869068  0.57355795    -0.20900
C50         C  0.01414251  0.31265218  0.61719919    -0.20900
C51         C  0.99008487  0.28331768  0.35064202    -0.22000
C52         C  0.98932258  0.30402172  0.38359531    -0.22000
C53         C  0.98742964  0.18621523  0.61194010    -0.22000
C54         C  0.98757630  0.20739938  0.64482920    -0.22000
C55         C  0.00271203  0.24325845  0.36237895    -0.17300
C56         C  0.99919743  0.18501604  0.51705013    -0.17300
C57         C  0.99981543  0.25989685  0.63332246    -0.17300
C58         C  0.00012580  0.31654201  0.47887516    -0.17300
H59         H  0.02228105  0.20148071  0.34000204     0.15600
H60         H  0.02029009  0.16993752  0.42351677     0.15600
H61         H  0.02067569  0.35200554  0.57346458     0.15600
H62         H  0.02031005  0.32122548  0.65711183     0.15600
H63         H  0.98568496  0.28132634  0.30848101     0.13900
H64         H  0.98444275  0.32120564  0.37177352     0.13900
H65         H  0.98292678  0.16428278  0.62377033     0.13900
H66         H  0.98311468  0.20493380  0.68695392     0.13900
H67         H  0.98863201  0.22796831  0.46984053     0.27100
H68         H  0.98775439  0.26241985  0.52519382     0.27100
O69         O  0.48481076  0.03678609  0.03609427    -0.87400
C70         C  0.44684527  0.47451256  0.91796270     0.88600
Mg71       Mg  0.03072356  0.07193240  0.03427848     1.58100
O72         O  0.46308573  0.44807809  0.03458118    -0.87100
O73         O  0.45492564  0.49961332  0.08701969    -0.74400
C74         C  0.10780804  0.00497947  0.97515973     0.93700
O75         O  0.49982352  0.04507499  0.91180904    -0.74300
O76         O  0.10859849  0.02968653  0.96865957    -0.81800
Mg77       Mg  0.45897011  0.03087905  0.96509057     1.58000
C78         C  0.50447773  0.39677537  0.02126828     0.93600
O79         O  0.41490363  0.01835194  0.00799615    -0.80000
H80         H  0.45786683  0.43989958  0.11233667    -0.05400
C81         C  0.02562910  0.47361357  0.91737886     0.88600
O82         O  0.04484692  0.04509895  0.08759021    -0.74500
O83         O  0.44806092  0.48503528  0.96242652    -0.87300
O84         O  0.48109047  0.39678939  0.00594551    -0.80100
C85         C  0.39659404  0.39204834  0.97363508     0.93700
C86         C  0.39163168  0.99475875  0.02302580     0.93600
Mg87       Mg  0.04051190  0.46905105  0.03222806     1.58000
O88         O  0.08419736  0.48121811  0.98864473    -0.80000
O89         O  0.99988332  0.45476730  0.08591797    -0.74300
O90         O  0.39658568  0.41540826  0.98930712    -0.80100
O91         O  0.47036671  0.07935140  0.96750134    -0.81800
O92         O  0.10320787  0.08476713  0.01040613    -0.80100
C93         C  0.47273387  0.44690798  0.07871660     0.88000
O94         O  0.05140780  0.01500321  0.03575384    -0.87300
O95         O  0.01478565  0.46356046  0.96129897    -0.87400
O96         O  0.04518302  0.00083489  0.91111107    -0.74400
Mg97       Mg  0.42821891  0.45902927  0.03296932     1.58000
O98         O  0.42045023  0.39139450  0.96536532    -0.81800
H99         H  0.48223224  0.04150058  0.11417968    -0.05500
O100        O  0.03679174  0.05225842  0.96324402    -0.87100
H101        H  0.04169743  0.05976300  0.88527152    -0.05400
H102        H  0.05916254  0.01734190  0.11367875    -0.05500
C103        C  0.02694673  0.05299768  0.91904338     0.88000
C104        C  0.47421325  0.02684032  0.08019084     0.88600
C105        C  0.05240920  0.02553553  0.08013786     0.88600
H106        H  0.01768721  0.45908641  0.88320873    -0.05500
O107        O  0.45460672  0.45514908  0.91007902    -0.74600
Mg108      Mg  0.07171015  0.04125268  0.96577127     1.58000
H109        H  0.43984194  0.48264614  0.88467876    -0.05500
C110        C  0.99483607  0.10330742  0.97527426     0.93600
O111        O  0.07930436  0.10907953  0.03215416    -0.81800
C112        C  0.10320031  0.10829335  0.02509876     0.93700
O113        O  0.39124777  0.47037010  0.03098500    -0.81800
Mg114      Mg  0.46888629  0.42846303  0.96314115     1.58200
O115        O  0.01827855  0.10347054  0.99097385    -0.80100
O116        O  0.02901518  0.42059725  0.02905391    -0.81800
O117        O  0.01350465  0.46344087  0.53484051    -0.87400
C118        C  0.05205947  0.02534157  0.41682652     0.88600
Mg119      Mg  0.46741474  0.42906139  0.53301311     1.58100
O120        O  0.03691912  0.05224642  0.53413426    -0.87100
O121        O  0.04439501  0.00011072  0.58569038    -0.74400
C122        C  0.39187603  0.99747908  0.47347031     0.93700
O123        O  0.99829682  0.45508685  0.41037578    -0.74300
O124        O  0.39108164  0.47278118  0.46575040    -0.81800
Mg125      Mg  0.03891286  0.46845623  0.46384840     1.58000
C126        C  0.99665140  0.10497714  0.52183598     0.93600
O127        O  0.08256104  0.47972619  0.50719140    -0.80000
H128        H  0.04177798  0.05961888  0.61220580    -0.05400
C129        C  0.47441943  0.02824488  0.41684448     0.88600
O130        O  0.45409175  0.45651832  0.58623598    -0.74500
O131        O  0.05086157  0.01462389  0.46104983    -0.87300
O132        O  0.01996214  0.10461977  0.50706261    -0.80100
C133        C  0.10392585  0.10760149  0.47322609     0.93700
C134        C  0.10632797  0.00312188  0.52164611     0.93600
Mg135      Mg  0.45933790  0.03264714  0.53162280     1.58000
O136        O  0.41541830  0.02095829  0.48828121    -0.80000
O137        O  0.50003563  0.04601010  0.58523743    -0.74300
O138        O  0.10343351  0.08380408  0.48756072    -0.80100
O139        O  0.02635915  0.41973217  0.46642312    -0.81800
O140        O  0.39518972  0.41692640  0.50693179    -0.80100
C141        C  0.02712808  0.05320921  0.57825174     0.88000
O142        O  0.44756347  0.48649556  0.53421191    -0.87300
O143        O  0.48515869  0.03802376  0.46100916    -0.87400
O144        O  0.45464537  0.50113481  0.40977287    -0.74400
Mg145      Mg  0.07132911  0.04046339  0.53154818     1.58000
O146        O  0.08031196  0.10891731  0.46617877    -0.81800
H147        H  0.01637930  0.45839161  0.61271869    -0.05500
O148        O  0.46178466  0.44889010  0.46170628    -0.87100
H149        H  0.45651123  0.44112210  0.38378392    -0.05400
H150        H  0.43999813  0.48449310  0.61212229    -0.05500
C151        C  0.47134371  0.44771500  0.41749599     0.88000
C152        C  0.02449055  0.47310299  0.57890461     0.88600
C153        C  0.44656328  0.47607294  0.57862645     0.88600
H154        H  0.48266503  0.04290213  0.38297196    -0.05500
O155        O  0.04490302  0.04521660  0.40967299    -0.74600
Mg156      Mg  0.42740350  0.46056941  0.46353180     1.58000
H157        H  0.05860286  0.01702730  0.38314867    -0.05500
C158        C  0.00166293  0.39611220  0.47445020     0.93600
O159        O  0.41883262  0.39277021  0.53129781    -0.81800
C160        C  0.39506173  0.39356435  0.52301585     0.93700
O161        O  0.10752551  0.02799337  0.52863502    -0.81800
Mg162      Mg  0.03146834  0.07247567  0.46337313     1.58200
O163        O  0.47861729  0.39653969  0.49007455    -0.80100
O164        O  0.47177127  0.08134655  0.52902154    -0.81800
N165        N  0.27202857  0.99636232  0.06351239    -0.35600
N166        N  0.21696568  0.99771080  0.04947110    -0.56200
N167        N  0.22809952  0.00487586  0.93473498    -0.35600
N168        N  0.28099615  0.99936594  0.94853581    -0.56200
C169        C  0.26189431  0.99116719  0.11400314     0.27900
C170        C  0.29537911  0.99155664  0.06098248     0.27900
C171        C  0.19994736  0.00013886  0.93670136     0.27900
C172        C  0.23368188  0.00110967  0.88369915     0.27900
C173        C  0.21847484  0.99933524  0.10303427     0.36600
C174        C  0.19495789  0.00305792  0.03486386     0.36600
C175        C  0.30690406  0.00131832  0.96406434     0.36600
C176        C  0.28338872  0.00512254  0.89589524     0.36600
C177        C  0.27911056  0.98297690  0.14396460    -0.20900
C178        C  0.30020917  0.98327091  0.11062341    -0.20900
C179        C  0.18773963  0.99386568  0.88622173    -0.20900
C180        C  0.20892007  0.99438113  0.85289968    -0.20900
C181        C  0.19695292  0.00522396  0.12254316    -0.22000
C182        C  0.18200794  0.00746667  0.07946739    -0.22000
C183        C  0.32564739  0.00792086  0.92077434    -0.22000
C184        C  0.31078765  0.01037005  0.87772220    -0.22000
C185        C  0.23875821  0.99530734  0.13479081    -0.17300
C186        C  0.31361914  0.99618692  0.01615359    -0.17300
C187        C  0.26070371  0.00438604  0.86348473    -0.17300
C188        C  0.18526675  0.00246418  0.98217483    -0.17300
H189        H  0.27693439  0.97762115  0.18574501     0.15600
H190        H  0.31739749  0.97829187  0.12190850     0.15600
H191        H  0.16575260  0.98925371  0.87454817     0.15600
H192        H  0.20625891  0.99013220  0.81069636     0.15600
H193        H  0.19249876  0.00776235  0.16352052     0.13900
H194        H  0.16370715  0.01188757  0.08088618     0.13900
H195        H  0.34774606  0.01065868  0.92017816     0.13900
H196        H  0.31918400  0.01535643  0.83759781     0.13900
H197        H  0.26562481  0.00587872  0.03411060     0.27100
H198        H  0.24352015  0.01316376  0.96531284     0.27100
N199        N  0.27194502  0.99813281  0.43477829    -0.35600
N200        N  0.21685304  0.99878832  0.44882580    -0.56200
N201        N  0.22661639  0.00311953  0.56328997    -0.35600
N202        N  0.28040609  0.99967794  0.54912974    -0.56200
C203        C  0.26032560  0.99077156  0.38540149     0.27900
C204        C  0.29392683  0.99133886  0.43808081     0.27900
C205        C  0.19809867  0.99725979  0.56087992     0.27900
C206        C  0.23184266  0.99811192  0.61376747     0.27900
C207        C  0.21952036  0.00238807  0.39566422     0.36600
C208        C  0.19535850  0.00474592  0.46389900     0.36600
C209        C  0.30719626  0.00412041  0.53303912     0.36600
C210        C  0.28295878  0.00616129  0.60148433     0.36600
C211        C  0.27500483  0.97900942  0.35706764    -0.20900
C212        C  0.29623611  0.97939114  0.39031353    -0.20900
C213        C  0.18511965  0.98862978  0.61049816    -0.20900
C214        C  0.20638644  0.98914648  0.64383382    -0.20900
C215        C  0.19951260  0.01051639  0.37671479    -0.22000
C216        C  0.18411892  0.01192325  0.41993919    -0.22000
C217        C  0.32676120  0.01315714  0.57556171    -0.22000
C218        C  0.31138441  0.01443010  0.61892491    -0.22000
C219        C  0.23858697  0.99669329  0.36392075    -0.17300
C220        C  0.31349164  0.99803814  0.48147479    -0.17300
C221        C  0.25947132  0.00317404  0.63416398    -0.17300
C222        C  0.18416651  0.00139478  0.51605073    -0.17300
H223        H  0.27120754  0.97148135  0.31630315     0.15600
H224        H  0.31197836  0.97224354  0.38012638     0.15600
H225        H  0.16273322  0.98286946  0.62169599     0.15600
H226        H  0.20350246  0.98380924  0.68562920     0.15600
H227        H  0.19605992  0.01456786  0.33598004     0.13900
H228        H  0.16641987  0.01724294  0.41900653     0.13900
H229        H  0.34961556  0.01798319  0.57550407     0.13900
H230        H  0.32006198  0.02053239  0.65877932     0.11700
H231        H  0.26792105  0.01073696  0.46205187     0.27100
H232        H  0.24253033  0.01325514  0.53383899     0.27100
N233        N  0.22535824  0.22739351  0.06437238    -0.35600
N234        N  0.28246739  0.28139694  0.04925071    -0.56200
N235        N  0.27305864  0.27477869  0.93455723    -0.35600
N236        N  0.21778470  0.21874518  0.94961579    -0.56200
C237        C  0.23607421  0.23232346  0.11453887     0.27900
C238        C  0.20210553  0.19916203  0.06225522     0.27900
C239        C  0.30177409  0.29705048  0.93654951     0.27900
C240        C  0.26747320  0.26434111  0.88417507     0.27900
C241        C  0.28018668  0.28304322  0.10241602     0.36600
C242        C  0.30550395  0.30787012  0.03365401     0.36600
C243        C  0.19080647  0.19662168  0.96549529     0.36600
C244        C  0.21594319  0.22165699  0.89663349     0.36600
C245        C  0.21932870  0.20691620  0.14463900    -0.20900
C246        C  0.19789415  0.18606455  0.11173875    -0.20900
C247        C  0.31448881  0.30097706  0.88677427    -0.20900
C248        C  0.29293990  0.28032028  0.85384566    -0.20900
C249        C  0.30209134  0.31057328  0.12077743    -0.22000
C250        C  0.31818943  0.32625476  0.07729534    -0.22000
C251        C  0.17191228  0.18512918  0.92219678    -0.22000
C252        C  0.18778546  0.20103319  0.87869201    -0.22000
C253        C  0.25942297  0.25958112  0.13487059    -0.17300
C254        C  0.18343640  0.18553474  0.01789581    -0.17300
C255        C  0.23966437  0.24190267  0.86392734    -0.17300
C256        C  0.31638686  0.31503974  0.98116505    -0.17300
H257        H  0.22209222  0.20375488  0.18619983     0.15600
H258        H  0.18096327  0.16384368  0.12312696     0.15600
H259        H  0.33696331  0.31715078  0.87524686     0.15600
H260        H  0.29574308  0.27751400  0.81214172     0.15600
H261        H  0.30619096  0.31849903  0.16128745     0.13900
H262        H  0.33715912  0.34859746  0.07782765     0.13900
H263        H  0.14906853  0.16710577  0.92190894     0.13900
H264        H  0.17951562  0.19771397  0.83845039     0.13900
H265        H  0.23125361  0.24340301  0.03511344     0.27100
H266        H  0.25733749  0.26937282  0.96419045     0.27100
N267        N  0.21991669  0.21696001  0.54877425    -0.35600
N268        N  0.22732151  0.22482335  0.43411386    -0.56200
N269        N  0.28371231  0.27964491  0.44946213    -0.35600
N270        N  0.27470163  0.27344933  0.56406705    -0.56200
C271        C  0.19256958  0.19584491  0.53200791     0.27900
C272        C  0.21786670  0.22145060  0.60117829     0.27900
C273        C  0.27959782  0.28140744  0.39686698     0.27900
C274        C  0.30463225  0.30712338  0.46598310     0.27900
C275        C  0.20330360  0.19709277  0.43528965     0.36600
C276        C  0.23686520  0.23001480  0.38332930     0.36600
C277        C  0.26939133  0.26384288  0.61481118     0.36600
C278        C  0.30286385  0.29673216  0.56271120     0.36600
C279        C  0.17304527  0.18644732  0.57455648    -0.20900
C280        C  0.18896678  0.20263289  0.61807211    -0.20900
C281        C  0.29846069  0.31024041  0.37960161    -0.20900
C282        C  0.31427331  0.32645224  0.42314768    -0.20900
C283        C  0.19753979  0.18463028  0.38502189    -0.22000
C284        C  0.21884097  0.20541109  0.35217507    -0.22000
C285        C  0.29436000  0.28107962  0.64570512    -0.22000
C286        C  0.31549316  0.30197347  0.61276209    -0.22000
C287        C  0.18505037  0.18387136  0.48003915    -0.17300
C288        C  0.24160693  0.24131644  0.63451361    -0.17300
C289        C  0.31641307  0.31479068  0.51793892    -0.17300
C290        C  0.25990894  0.25753020  0.36373126    -0.17300
H291        H  0.14970060  0.16965334  0.57434368     0.15600
H292        H  0.18021130  0.20071328  0.65767283     0.15600
H293        H  0.30062709  0.31875271  0.33974428     0.15600
H294        H  0.33102943  0.34982454  0.42318317     0.15600
H295        H  0.17955742  0.16301458  0.37306965     0.13900
H296        H  0.22048563  0.20288306  0.30994719     0.13900
H297        H  0.29697234  0.27910651  0.68779025     0.13900
H298        H  0.33749417  0.31929904  0.62446363     0.13900
H299        H  0.23943895  0.22562233  0.52695369     0.27100
H300        H  0.27499175  0.26023108  0.47166924     0.27100
C301        C  0.23278869  0.21472807  0.77735415    -0.12400
C302        C  0.23583528  0.23964837  0.80508843     0.09800
C303        C  0.23806287  0.26385722  0.77627640    -0.12400
C304        C  0.23864409  0.26378010  0.72089039    -0.12400
C305        C  0.23702354  0.23949488  0.69313242     0.09800
C306        C  0.23332777  0.21463429  0.72177147    -0.12400
H307        H  0.23120139  0.19589750  0.79877620     0.13700
H308        H  0.24044984  0.28329223  0.79684277     0.13700
H309        H  0.24140858  0.28313046  0.69958704     0.13700
H310        H  0.23207601  0.19570615  0.70113643     0.13700
C311        C  0.23907039  0.26365983  0.22238753    -0.12400
C312        C  0.26198242  0.26319235  0.19357913     0.09800
C313        C  0.28568768  0.26347172  0.22109875    -0.12400
C314        C  0.28576089  0.26292641  0.27664731    -0.12400
C315        C  0.26208724  0.26199791  0.30525992     0.09800
C316        C  0.23913124  0.26308751  0.27772246    -0.12400
H317        H  0.22059685  0.26340392  0.20186230     0.13700
H318        H  0.30347974  0.26296714  0.19954171     0.13700
H319        H  0.30363504  0.26206777  0.29726893     0.13700
H320        H  0.22073068  0.26243802  0.29916004     0.13700
C321        C  0.26662189  0.03000433  0.77619905    -0.12400
C322        C  0.26445735  0.00572982  0.80470057     0.09800
C323        C  0.26287905  0.98151370  0.77673142    -0.12400
C324        C  0.26245327  0.98115251  0.72117328    -0.12400
C325        C  0.26349557  0.00495621  0.69280785     0.09800
C326        C  0.26607398  0.02958437  0.72073790    -0.12400
H327        H  0.26765723  0.04878766  0.79701976     0.13700
H328        H  0.26160754  0.46287894  0.79802343     0.13700
H329        H  0.26089469  0.46224905  0.70035871     0.13700
H330        H  0.26677826  0.04807945  0.69952697     0.13700
C331        C  0.25971292  0.02069375  0.27687762    -0.12400
C332        C  0.23650339  0.99746453  0.30522400     0.09800
C333        C  0.21281513  0.47456041  0.27741277    -0.12400
C334        C  0.21292118  0.47407056  0.22183034    -0.12400
C335        C  0.23671520  0.99661154  0.19355414     0.09800
C336        C  0.25976488  0.02032632  0.22156700    -0.12400
H337        H  0.27816392  0.03875723  0.29773844     0.13700
H338        H  0.19461392  0.45658915  0.29874473     0.13700
H339        H  0.19476314  0.45575380  0.20090446     0.13700
H340        H  0.27822167  0.03816352  0.20046240     0.13700
C341        C  0.13242155  0.13443438  0.46895437    -0.12300
C342        C  0.15641630  0.15692641  0.47210874    -0.13900
C343        C  0.34375789  0.34305548  0.52553126    -0.12300
C344        C  0.36693383  0.36643865  0.52796367    -0.13900
C345        C  0.15637889  0.00140780  0.52363952    -0.12300
C346        C  0.13329317  0.00178098  0.52622068    -0.13900
C347        C  0.34130335  0.99819634  0.47292470    -0.12300
C348        C  0.36461017  0.99830663  0.46946241    -0.13900
C349        C  0.15518921  0.15822978  0.02640795    -0.12300
C350        C  0.13143708  0.13545255  0.02965500    -0.13900
C351        C  0.34472617  0.34216022  0.97280697    -0.12300
C352        C  0.36844027  0.36489666  0.96937788    -0.13900
C353        C  0.15790562  0.00333929  0.97436547    -0.12300
C354        C  0.13501281  0.00405713  0.97113613    -0.13900
C355        C  0.34111253  0.99557367  0.02404926    -0.12300
C356        C  0.36423397  0.99529570  0.02722083    -0.13900
C357        C  0.99806696  0.13332556  0.52687768    -0.12300
C358        C  0.99879548  0.15698133  0.52451386    -0.13900
C359        C  0.99997620  0.34431484  0.47156796    -0.12300
C360        C  0.00028222  0.36777483  0.46941112    -0.13900
C361        C  0.02569814  0.26621224  0.72016802    -0.12400
C362        C  0.00141828  0.26414591  0.69188136     0.09800
C363        C  0.47739905  0.26296852  0.71990156    -0.12400
C364        C  0.47711923  0.26243324  0.77547481    -0.12400
C365        C  0.00088467  0.26306939  0.80360643     0.09800
C366        C  0.02542725  0.26566482  0.77556442    -0.12400
H367        H  0.04431265  0.26704127  0.69920731     0.13700
H368        H  0.45844922  0.26127127  0.69870128     0.13700
H369        H  0.45801140  0.26045532  0.79647528     0.13700
H370        H  0.04388562  0.26619664  0.79663192     0.13700
C371        C  0.48307297  0.21576649  0.22018592    -0.12400
C372        C  0.00475712  0.24042523  0.19176174     0.09800
C373        C  0.02749302  0.26446061  0.21984873    -0.12400
C374        C  0.02760544  0.26468245  0.27526970    -0.12400
C375        C  0.00503494  0.24083485  0.30375384     0.09800
C376        C  0.48323334  0.21596509  0.27578191    -0.12400
H377        H  0.46532383  0.19703221  0.19934366     0.13700
H378        H  0.04442925  0.28363182  0.19874679     0.13700
H379        H  0.04462956  0.28400963  0.29604624     0.13700
H380        H  0.46562001  0.19736953  0.29698192     0.13700
C381        C  0.99643887  0.15507527  0.97139479    -0.12300
C382        C  0.99575769  0.13141357  0.96963352    -0.13900
C383        C  0.50245806  0.34485540  0.02398598    -0.12300
C384        C  0.50337559  0.36859526  0.02627392    -0.13900
N385        N  0.99768027  0.71757020  0.04734673    -0.35600
N386        N  0.50137594  0.77490256  0.06278067    -0.56200
N387        N  0.99837138  0.78109947  0.94810904    -0.35600
N388        N  0.99801327  0.72534391  0.93243919    -0.56200
C389        C  0.50490425  0.72211813  0.09949825     0.27900
C390        C  0.00279998  0.69572526  0.03032440     0.27900
C391        C  0.50528504  0.80869456  0.96457894     0.27900
C392        C  0.00393461  0.78271323  0.89539822     0.27900
C393        C  0.49748552  0.76557989  0.11368547     0.36600
C394        C  0.49718086  0.79865440  0.06155699     0.36600
C395        C  0.99295400  0.69708753  0.93375674     0.36600
C396        C  0.99394139  0.73083570  0.88163702     0.36600
C397        C  0.01436673  0.70270867  0.11593984    -0.20900
C398        C  0.01297746  0.68601562  0.07240638    -0.20900
C399        C  0.01482616  0.82793557  0.92166203    -0.20900
C400        C  0.01406321  0.81157059  0.87807786    -0.20900
C401        C  0.49077684  0.78352189  0.14484065    -0.22000
C402        C  0.49072327  0.80453056  0.11188359    -0.22000
C403        C  0.98578080  0.68462231  0.88350455    -0.22000
C404        C  0.98639202  0.70597593  0.85051899    -0.22000
C405        C  0.50202746  0.74250194  0.13313594    -0.17300
C406        C  0.99712832  0.68328730  0.97865243    -0.17300
C407        C  0.99905014  0.75862643  0.86214880    -0.17300
C408        C  0.50139521  0.81649824  0.01656183    -0.17300
H409        H  0.52154975  0.70070919  0.15520359     0.15600
H410        H  0.01880767  0.66866353  0.07187434     0.15600
H411        H  0.52171419  0.85139653  0.92166117     0.15600
H412        H  0.02016233  0.81997050  0.83811479     0.15600
H413        H  0.48664972  0.78188916  0.18706000     0.13900
H414        H  0.48673311  0.82231659  0.12374158     0.13900
H415        H  0.98112279  0.66262460  0.87164656     0.13900
H416        H  0.98217583  0.70359535  0.80829136     0.13900
H417        H  0.98697148  0.72656292  0.02597001     0.27100
H418        H  0.98758965  0.76178290  0.97040903     0.27100
N419        N  0.99925656  0.71890604  0.44831047    -0.35600
N420        N  0.00163902  0.77562680  0.43260301    -0.56200
N421        N  0.99844621  0.78185082  0.54738111    -0.35600
N422        N  0.99940829  0.72682998  0.56313841    -0.56200
C423        C  0.00603945  0.72316549  0.39601232     0.27900
C424        C  0.00454235  0.69719625  0.46531611     0.27900
C425        C  0.00469952  0.80919785  0.53077728     0.27900
C426        C  0.00425011  0.78375101  0.60005280     0.27900
C427        C  0.99775276  0.76609214  0.38175006     0.36600
C428        C  0.99643117  0.79874273  0.43385574     0.36600
C429        C  0.99466470  0.69869268  0.56182205     0.36600
C430        C  0.99493705  0.73217038  0.61380150     0.36600
C431        C  0.01544830  0.70368442  0.37947434    -0.20900
C432        C  0.01441826  0.68725131  0.42308545    -0.20900
C433        C  0.01428412  0.82865031  0.57358718    -0.20900
C434        C  0.01404224  0.81260118  0.61724015    -0.20900
C435        C  0.99015088  0.78333556  0.35061303    -0.22000
C436        C  0.98940107  0.80404514  0.38356539    -0.22000
C437        C  0.98730449  0.68616258  0.61192288    -0.22000
C438        C  0.98743769  0.70733648  0.64481505    -0.22000
C439        C  0.00270276  0.74322831  0.36237248    -0.17300
C440        C  0.99915179  0.68500172  0.51707231    -0.17300
C441        C  0.99972574  0.75984840  0.63334854    -0.17300
C442        C  0.00016303  0.81653308  0.47886113    -0.17300
H443        H  0.02221084  0.70140323  0.34000468     0.15600
H444        H  0.02021559  0.66987429  0.42355139     0.15600
H445        H  0.02061615  0.85196558  0.57349763     0.15600
H446        H  0.02017827  0.82116524  0.65716405     0.15600
H447        H  0.98577262  0.78135940  0.30844485     0.13900
H448        H  0.98455213  0.82124906  0.37173547     0.13900
H449        H  0.98277377  0.66421860  0.62373673     0.13900
H450        H  0.98293518  0.70485101  0.68692574     0.13900
H451        H  0.98862522  0.72796145  0.46983544     0.27100
H452        H  0.98773636  0.76239746  0.52518236     0.27100
O453        O  0.48482554  0.53681782  0.03624613    -0.87400
C454        C  0.44687033  0.97449233  0.91784013     0.88600
Mg455      Mg  0.03070909  0.57189421  0.03416888     1.58100
O456        O  0.46308842  0.94808928  0.03454554    -0.87100
O457        O  0.45487464  0.99962563  0.08690205    -0.74400
C458        C  0.10780105  0.50489714  0.97518203     0.93700
O459        O  0.49978415  0.54507996  0.91192798    -0.74300
O460        O  0.10862002  0.52962217  0.96872062    -0.81800
Mg461      Mg  0.45895940  0.53089599  0.96525663     1.58000
C462        C  0.50444826  0.89675197  0.02130456     0.93600
O463        O  0.41490926  0.51838788  0.00821446    -0.80000
H464        H  0.45789800  0.94002269  0.11233740    -0.05400
C465        C  0.02559669  0.97365127  0.91736847     0.88600
O466        O  0.04482568  0.54507017  0.08751766    -0.74500
O467        O  0.44806909  0.98501867  0.96229302    -0.87300
O468        O  0.48106843  0.89676747  0.00594595    -0.80100
C469        C  0.39660676  0.89203434  0.97354232     0.93700
C470        C  0.39163467  0.49478507  0.02320405     0.93600
Mg471      Mg  0.04051016  0.96906410  0.03222177     1.58000
O472        O  0.08422532  0.98129909  0.98869054    -0.80000
O473        O  0.99986657  0.95470039  0.08592316    -0.74300
O474        O  0.39659988  0.91539003  0.98923788    -0.80100
O475        O  0.47036410  0.57936799  0.96763141    -0.81800
O476        O  0.10322568  0.58476043  0.01035067    -0.80100
C477        C  0.47275249  0.94697754  0.07870214     0.88000
O478        O  0.05144628  0.51499695  0.03572549    -0.87300
O479        O  0.01477570  0.96357122  0.96129048    -0.87400
O480        O  0.04523429  0.50078843  0.91110159    -0.74400
Mg481      Mg  0.42821294  0.95902464  0.03286226     1.58000
O482        O  0.42046233  0.89137988  0.96527788    -0.81800
H483        H  0.48230101  0.54146729  0.11436658    -0.05500
O484        O  0.03681695  0.55222587  0.96315619    -0.87100
H485        H  0.04174420  0.55974553  0.88518907    -0.05400
H486        H  0.05917213  0.51734819  0.11366137    -0.05500
C487        C  0.02698521  0.55297749  0.91894943     0.88000
C488        C  0.47425877  0.52683399  0.08034426     0.88600
C489        C  0.05242102  0.52552903  0.08009868     0.88600
H490        H  0.01764735  0.95913998  0.88317821    -0.05500
O491        O  0.45463821  0.95513131  0.90999370    -0.74600
Mg492      Mg  0.07174655  0.54122115  0.96573861     1.58000
H493        H  0.43987881  0.98262218  0.88453415    -0.05500
C494        C  0.99483409  0.60328804  0.97517668     0.93600
O495        O  0.07928087  0.60903530  0.03209213    -0.81800
C496        C  0.10318950  0.60827193  0.02505586     0.93700
O497        O  0.39123649  0.97034200  0.03082430    -0.81800
Mg498      Mg  0.46889591  0.92845195  0.96311580     1.58200
O499        O  0.01827809  0.60344467  0.99084992    -0.80100
O500        O  0.02905097  0.92062273  0.02898123    -0.81800
O501        O  0.01354521  0.96342894  0.53474264    -0.87400
C502        C  0.05196238  0.52536220  0.41690675     0.88600
Mg503      Mg  0.46736081  0.92909502  0.53319067     1.58100
O504        O  0.03688910  0.55226493  0.53430345    -0.87100
O505        O  0.04439129  0.50011854  0.58575721    -0.74400
C506        C  0.39190266  0.49742210  0.47342376     0.93700
O507        O  0.99841075  0.95507219  0.41026591    -0.74300
O508        O  0.39104578  0.97283301  0.46582953    -0.81800
Mg509      Mg  0.03900159  0.96845413  0.46382867     1.58000
C510        C  0.99661393  0.60498928  0.52204647     0.93600
O511        O  0.08260251  0.97973585  0.50732308    -0.80000
H512        H  0.04174346  0.55962393  0.61238149    -0.05400
C513        C  0.47446190  0.52819647  0.41663340     0.88600
O514        O  0.45408451  0.95658567  0.58642390    -0.74500
O515        O  0.05078717  0.51463691  0.46111463    -0.87300
O516        O  0.01993634  0.60463133  0.50736022    -0.80100
C517        C  0.10388726  0.60762518  0.47328687     0.93700
C518        C  0.10630042  0.50310054  0.52151352     0.93600
Mg519      Mg  0.45938686  0.53261240  0.53143344     1.58000
O520        O  0.41545748  0.52091577  0.48814113    -0.80000
O521        O  0.50006782  0.54598183  0.58506348    -0.74300
O522        O  0.10339240  0.58382305  0.48760431    -0.80100
O523        O  0.02648154  0.91974800  0.46643682    -0.81800
O524        O  0.39512936  0.91698214  0.50708994    -0.80100
C525        C  0.02709593  0.55322388  0.57842511     0.88000
O526        O  0.44749877  0.98653302  0.53441236    -0.87300
O527        O  0.48520328  0.53798735  0.46079343    -0.87400
O528        O  0.45460443  0.00118507  0.40996618    -0.74400
Mg529      Mg  0.07130370  0.54047026  0.53160780     1.58000
O530        O  0.08027263  0.60895125  0.46631900    -0.81800
H531        H  0.01637561  0.95838118  0.61263449    -0.05500
O532        O  0.46171633  0.94892623  0.46190204    -0.87100
H533        H  0.45638229  0.94113645  0.38399260    -0.05400
H534        H  0.43999780  0.98455980  0.61234279    -0.05500
C535        C  0.47123972  0.94773468  0.41766923     0.88000
C536        C  0.02450338  0.97309290  0.57882245     0.88600
C537        C  0.44653771  0.97612809  0.57882930     0.88600
H538        H  0.48270454  0.54284565  0.38274986    -0.05500
O539        O  0.04481517  0.54524788  0.40980806    -0.74600
Mg540      Mg  0.42735252  0.96061657  0.46370858     1.58000
H541        H  0.05848032  0.51704781  0.38319542    -0.05500
C542        C  0.00177628  0.89612580  0.47437152     0.93600
O543        O  0.41876377  0.89283042  0.53154226    -0.81800
C544        C  0.39499619  0.89362604  0.52322039     0.93700
O545        O  0.10750375  0.52797275  0.52857678    -0.81800
Mg546      Mg  0.03141857  0.57250534  0.46357785     1.58200
O547        O  0.47852738  0.89653634  0.49025153    -0.80100
O548        O  0.47181602  0.58132658  0.52886874    -0.81800
N549        N  0.27208835  0.49646526  0.06346321    -0.35600
N550        N  0.21704929  0.49778814  0.04950088    -0.56200
N551        N  0.22810563  0.50484355  0.93478651    -0.35600
N552        N  0.28103478  0.49943589  0.94854879    -0.56200
C553        C  0.26172720  0.49089654  0.11380102     0.27900
C554        C  0.29518155  0.49126542  0.06076706     0.27900
C555        C  0.19991519  0.49999626  0.93678929     0.27900
C556        C  0.23366447  0.50102049  0.88376954     0.27900
C557        C  0.21866928  0.49958018  0.10304397     0.36600
C558        C  0.19509810  0.50321908  0.03489102     0.36600
C559        C  0.30701021  0.50156184  0.96412838     0.36600
C560        C  0.28348980  0.50535258  0.89596557     0.36600
C561        C  0.27851598  0.48205703  0.14347501    -0.20900
C562        C  0.29960151  0.48233516  0.11011543    -0.20900
C563        C  0.18764364  0.49356011  0.88636163    -0.20900
C564        C  0.20883587  0.49410780  0.85302542    -0.20900
C565        C  0.19729942  0.50569290  0.12254477    -0.22000
C566        C  0.18230693  0.50786868  0.07947340    -0.22000
C567        C  0.32586901  0.50844848  0.92094434    -0.22000
C568        C  0.31100087  0.51088510  0.87788449    -0.22000
C569        C  0.23882421  0.49533969  0.13475606    -0.17300
C570        C  0.31360673  0.49618731  0.01612022    -0.17300
C571        C  0.26074774  0.50447096  0.86352758    -0.17300
C572        C  0.18528812  0.50243237  0.98223420    -0.17300
H573        H  0.27607246  0.47629985  0.18508850     0.15600
H574        H  0.31652325  0.47693526  0.12120148     0.15600
H575        H  0.16561783  0.48884500  0.87472831     0.15600
H576        H  0.20614804  0.48978105  0.81084635     0.15600
H577        H  0.19294556  0.50837477  0.16350977     0.13900
H578        H  0.16407187  0.51238940  0.08087747     0.13900
H579        H  0.34803089  0.51134416  0.92041639     0.13900
H580        H  0.31945795  0.51603688  0.83781327     0.13900
H581        H  0.26611726  0.50658416  0.03444936     0.27100
H582        H  0.24356207  0.51325124  0.96530723     0.27100
N583        N  0.27204087  0.49818675  0.43489319    -0.35600
N584        N  0.21690706  0.49878567  0.44878712    -0.56200
N585        N  0.22656540  0.50302995  0.56324132    -0.35600
N586        N  0.28041754  0.49968231  0.54922588    -0.56200
C587        C  0.26040262  0.49077089  0.38553723     0.27900
C588        C  0.29394571  0.49128533  0.43829322     0.27900
C589        C  0.19802888  0.49711398  0.56076059     0.27900
C590        C  0.23177517  0.49801859  0.61372613     0.27900
C591        C  0.21969727  0.50252448  0.39566000     0.36600
C592        C  0.19543252  0.50478081  0.46383077     0.36600
C593        C  0.30723001  0.50416659  0.53317934     0.36600
C594        C  0.28295545  0.50622428  0.60155179     0.36600
C595        C  0.27497719  0.47885114  0.35733256    -0.20900
C596        C  0.29617581  0.47920335  0.39062672    -0.20900
C597        C  0.18500953  0.48841506  0.61033554    -0.20900
C598        C  0.20627865  0.48896603  0.64372091    -0.20900
C599        C  0.19980113  0.51079987  0.37670464    -0.22000
C600        C  0.18433645  0.51213487  0.41988784    -0.22000
C601        C  0.32680110  0.51329710  0.57569476    -0.22000
C602        C  0.31140283  0.51458834  0.61901366    -0.22000
C603        C  0.23875320  0.49679207  0.36395484    -0.17300
C604        C  0.31352318  0.49801826  0.48166957    -0.17300
C605        C  0.25943031  0.50318355  0.63419014    -0.17300
C606        C  0.18414166  0.50131714  0.51592808    -0.17300
H607        H  0.27113432  0.47123960  0.31661711     0.15600
H608        H  0.31184640  0.47194810  0.38053623     0.15600
H609        H  0.16260365  0.48261015  0.62148121     0.15600
H610        H  0.20337437  0.48360830  0.68550758     0.15600
H611        H  0.19646240  0.51498934  0.33598971     0.13900
H612        H  0.16668956  0.51752920  0.41893910     0.13900
H613        H  0.34967076  0.51817050  0.57566014     0.13900
H614        H  0.32007827  0.52075476  0.65885713     0.11700
H615        H  0.26808684  0.51088825  0.46206027     0.27100
H616        H  0.24250700  0.51322806  0.53384927     0.27100
N617        N  0.22527026  0.72748428  0.06437362    -0.35600
N618        N  0.28246072  0.78142210  0.04916401    -0.56200
N619        N  0.27311475  0.77466926  0.93444052    -0.35600
N620        N  0.21778315  0.71868445  0.94962473    -0.56200
C621        C  0.23600774  0.73242970  0.11453150     0.27900
C622        C  0.20200459  0.69925575  0.06230507     0.27900
C623        C  0.30176412  0.79708571  0.93635910     0.27900
C624        C  0.26750904  0.76427813  0.88403108     0.27900
C625        C  0.28018350  0.78310379  0.10232669     0.36600
C626        C  0.30551447  0.80787624  0.03352309     0.36600
C627        C  0.19082635  0.69650243  0.96545051     0.36600
C628        C  0.21606162  0.72138096  0.89655112     0.36600
C629        C  0.21925271  0.70704209  0.14467142    -0.20900
C630        C  0.19779274  0.68618827  0.11181472    -0.20900
C631        C  0.31440739  0.80117157  0.88648354    -0.20900
C632        C  0.29288549  0.78046409  0.85358102    -0.20900
C633        C  0.30210507  0.81063619  0.12064209    -0.22000
C634        C  0.31820939  0.82628151  0.07713956    -0.22000
C635        C  0.17206939  0.68475489  0.92202775    -0.22000
C636        C  0.18801159  0.70054604  0.87849361    -0.22000
C637        C  0.25940066  0.75967626  0.13482499    -0.17300
C638        C  0.18337945  0.68555531  0.01792126    -0.17300
C639        C  0.23977153  0.74165844  0.86386722    -0.17300
C640        C  0.31638357  0.81504395  0.98101335    -0.17300
H641        H  0.22203764  0.70388843  0.18622600     0.15600
H642        H  0.18087000  0.66396957  0.12323097     0.15600
H643        H  0.33681585  0.81748471  0.87486777     0.15600
H644        H  0.29564802  0.77775593  0.81181815     0.15600
H645        H  0.30620630  0.81859138  0.16113385     0.13900
H646        H  0.33718265  0.84862223  0.07764060     0.13900
H647        H  0.14928200  0.66661554  0.92166672     0.13900
H648        H  0.17986074  0.69701880  0.83815410     0.13900
H649        H  0.23117723  0.74347582  0.03507587     0.27100
H650        H  0.25743801  0.76909694  0.96419371     0.27100
N651        N  0.22000177  0.71683267  0.54874616    -0.35600
N652        N  0.22731559  0.72486625  0.43407726    -0.56200
N653        N  0.28371911  0.77968410  0.44951411    -0.35600
N654        N  0.27478285  0.77332412  0.56414991    -0.56200
C655        C  0.19265967  0.69567973  0.53202759     0.27900
C656        C  0.21802324  0.72115854  0.60124322     0.27900
C657        C  0.27960161  0.78148225  0.39692497     0.27900
C658        C  0.30462042  0.80715969  0.46609631     0.27900
C659        C  0.20327042  0.69714858  0.43519360     0.36600
C660        C  0.23683873  0.73011011  0.38327896     0.36600
C661        C  0.26945567  0.76376556  0.61492122     0.36600
C662        C  0.30285143  0.79677319  0.56286874     0.36600
C663        C  0.17322068  0.68608261  0.57470817    -0.20900
C664        C  0.18918720  0.70217647  0.61825598    -0.20900
C665        C  0.29844364  0.81033314  0.37972799    -0.20900
C666        C  0.31424302  0.82651946  0.42330311    -0.20900
C667        C  0.19746261  0.68475379  0.38487253    -0.22000
C668        C  0.21877154  0.70555207  0.35206058    -0.22000
C669        C  0.29430912  0.78121882  0.64592478    -0.22000
C670        C  0.31539713  0.80217602  0.61300853    -0.22000
C671        C  0.18506551  0.68384520  0.47997305    -0.17300
C672        C  0.24175001  0.74106038  0.63455399    -0.17300
C673        C  0.31638150  0.81482714  0.51807570    -0.17300
C674        C  0.25990985  0.75763128  0.36373285    -0.17300
H675        H  0.14990298  0.66921119  0.57456745     0.15600
H676        H  0.18050153  0.70010150  0.65795377     0.15600
H677        H  0.30059551  0.81887783  0.33989958     0.15600
H678        H  0.33097104  0.84990138  0.42338839     0.15600
H679        H  0.17946228  0.66315905  0.37287326     0.13900
H680        H  0.22039566  0.70306147  0.30981488     0.13900
H681        H  0.29686839  0.77934737  0.68806282     0.13900
H682        H  0.33730563  0.81965737  0.62479293     0.13900
H683        H  0.23948428  0.72565031  0.52678814     0.27100
H684        H  0.27500601  0.76025399  0.47166835     0.27100
C685        C  0.23385304  0.71473562  0.77738971    -0.12400
C686        C  0.23596884  0.73928233  0.80505838     0.09800
C687        C  0.23732659  0.76309756  0.77622903    -0.12400
C688        C  0.23792009  0.76302219  0.72084462    -0.12400
C689        C  0.23718274  0.73913286  0.69314959     0.09800
C690        C  0.23440782  0.71464360  0.72180959    -0.12400
H691        H  0.23296138  0.69622999  0.79886213     0.13700
H692        H  0.23902480  0.78224991  0.79677943     0.13700
H693        H  0.24000477  0.78208900  0.69949506     0.13700
H694        H  0.23386496  0.69603927  0.70119117     0.13700
C695        C  0.23905450  0.76374717  0.22237097    -0.12400
C696        C  0.26197965  0.76331316  0.19354565     0.09800
C697        C  0.28571489  0.76365024  0.22106904    -0.12400
C698        C  0.28579712  0.76311501  0.27662605    -0.12400
C699        C  0.26210257  0.76213792  0.30525333     0.09800
C700        C  0.23912533  0.76318671  0.27770958    -0.12400
H701        H  0.22055916  0.76345129  0.20185481     0.13700
H702        H  0.30352211  0.76317569  0.19951049     0.13700
H703        H  0.30369108  0.76229021  0.29724134     0.13700
H704        H  0.22070845  0.76250234  0.29914685     0.13700
C705        C  0.26628408  0.52995746  0.77622014    -0.12400
C706        C  0.26450617  0.50585468  0.80473926     0.09800
C707        C  0.26328326  0.48179837  0.77677643    -0.12400
C708        C  0.26281152  0.48140650  0.72121876    -0.12400
C709        C  0.26344939  0.50501682  0.69284086     0.09800
C710        C  0.26568738  0.52950421  0.72076131    -0.12400
H711        H  0.26704679  0.54861756  0.79702995     0.13700
H712        H  0.26090086  0.96246474  0.79797268     0.13700
H713        H  0.26025505  0.96188154  0.70030113     0.13700
H714        H  0.26609597  0.54785769  0.69954646     0.13700
C715        C  0.26023204  0.52047912  0.27684773    -0.12400
C716        C  0.23672872  0.49757476  0.30523497     0.09800
C717        C  0.21288033  0.97414906  0.27738414    -0.12400
C718        C  0.21301569  0.97368505  0.22180404    -0.12400
C719        C  0.23688394  0.49667334  0.19354210     0.09800
C720        C  0.26026158  0.52008518  0.22153779    -0.12400
H721        H  0.27890970  0.53830786  0.29767925     0.13700
H722        H  0.19491129  0.95593613  0.29869965     0.13700
H723        H  0.19511118  0.95514395  0.20085097     0.13700
H724        H  0.27892814  0.53767156  0.20041734     0.13700
C725        C  0.13239189  0.63444839  0.46892566    -0.12300
C726        C  0.15640823  0.65692307  0.47201843    -0.13900
C727        C  0.34369639  0.84311760  0.52568492    -0.12300
C728        C  0.36686586  0.86650433  0.52815215    -0.13900
C729        C  0.15634694  0.50134108  0.52345687    -0.12300
C730        C  0.13326792  0.50173982  0.52602569    -0.13900
C731        C  0.34132337  0.49814302  0.47314190    -0.12300
C732        C  0.36461942  0.49823400  0.46957832    -0.13900
C733        C  0.15514396  0.65824129  0.02645115    -0.12300
C734        C  0.13140732  0.63544552  0.02966221    -0.13900
C735        C  0.34472628  0.84216336  0.97266628    -0.12300
C736        C  0.36845004  0.86488956  0.96925380    -0.13900
C737        C  0.15789809  0.50325249  0.97443786    -0.12300
C738        C  0.13499611  0.50395242  0.97119320    -0.13900
C739        C  0.34109458  0.49556967  0.02408494    -0.12300
C740        C  0.36422241  0.49530529  0.02733728    -0.13900
C741        C  0.99802849  0.63333168  0.52702272    -0.12300
C742        C  0.99875515  0.65697966  0.52457554    -0.13900
C743        C  0.00006433  0.84432475  0.47152762    -0.12300
C744        C  0.00039823  0.86779452  0.46934380    -0.13900
C745        C  0.02556013  0.76601853  0.72019891    -0.12400
C746        C  0.00133962  0.76408977  0.69191217     0.09800
C747        C  0.47742169  0.76289638  0.71987263    -0.12400
C748        C  0.47714609  0.76236708  0.77544529    -0.12400
C749        C  0.00079902  0.76300153  0.80363909     0.09800
C750        C  0.02528566  0.76546494  0.77559311    -0.12400
H751        H  0.04412756  0.76674643  0.69923794     0.13700
H752        H  0.45842547  0.76108976  0.69867114     0.13700
H753        H  0.45799372  0.76028222  0.79644493     0.13700
H754        H  0.04369541  0.76589285  0.79665654     0.13700
C755        C  0.48319154  0.71574556  0.22018208    -0.12400
C756        C  0.00470890  0.74040325  0.19177376     0.09800
C757        C  0.02751854  0.76437624  0.21985526    -0.12400
C758        C  0.02764172  0.76458749  0.27527594    -0.12400
C759        C  0.00500849  0.74079074  0.30375433     0.09800
C760        C  0.48334019  0.71595249  0.27578035    -0.12400
H761        H  0.46549587  0.69696551  0.19934117     0.13700
H762        H  0.04450815  0.78350963  0.19875173     0.13700
H763        H  0.04472478  0.78387156  0.29605785     0.13700
H764        H  0.46577372  0.69731549  0.29697675     0.13700
C765        C  0.99642215  0.65505631  0.97143560    -0.12300
C766        C  0.99574978  0.63139810  0.96961602    -0.13900
C767        C  0.50246120  0.84484773  0.02398889    -0.12300
C768        C  0.50335165  0.86857422  0.02629809    -0.13900
N769        N  0.49768045  0.21755894  0.04733705    -0.35600
N770        N  0.00138926  0.27491804  0.06279247    -0.56200
N771        N  0.49833699  0.28107178  0.94809714    -0.35600
N772        N  0.49798693  0.22532179  0.93243050    -0.56200
C773        C  0.00491142  0.22212823  0.09950257     0.27900
C774        C  0.50282202  0.19572914  0.03031104     0.27900
C775        C  0.00529220  0.30871036  0.96458945     0.27900
C776        C  0.50389720  0.28268117  0.89538608     0.27900
C777        C  0.99751590  0.26560401  0.11370138     0.36600
C778        C  0.99719756  0.29867187  0.06157364     0.36600
C779        C  0.49295308  0.19707470  0.93374829     0.36600
C780        C  0.49389464  0.23080182  0.88163312     0.36600
C781        C  0.51438262  0.20271472  0.11593043    -0.20900
C782        C  0.51301126  0.18603081  0.07239296    -0.20900
C783        C  0.51483112  0.32791551  0.92164964    -0.20900
C784        C  0.51404878  0.31154244  0.87806414    -0.20900
C785        C  0.99082437  0.28355522  0.14486578    -0.22000
C786        C  0.99076025  0.30455846  0.11190883    -0.22000
C787        C  0.48577415  0.18460296  0.88350070    -0.22000
C788        C  0.48635485  0.20594315  0.85051832    -0.22000
C789        C  0.00204894  0.24251898  0.13314292    -0.17300
C790        C  0.49715350  0.18328986  0.97863942    -0.17300
C791        C  0.49899687  0.25858872  0.86214084    -0.17300
C792        C  0.00139821  0.31650941  0.01657453    -0.17300
H793        H  0.02154540  0.20070732  0.15520463     0.15600
H794        H  0.51885827  0.16869075  0.07185859     0.15600
H795        H  0.02169566  0.35140896  0.92167326     0.15600
H796        H  0.52015238  0.31993986  0.83810047     0.15600
H797        H  0.98671251  0.28193055  0.18708989     0.13900
H798        H  0.98677754  0.32234844  0.12377328     0.13900
H799        H  0.48113289  0.16261060  0.87164291     0.13900
H800        H  0.48213183  0.20355753  0.80829278     0.13900
H801        H  0.48695943  0.22654105  0.02595989     0.27100
H802        H  0.48754235  0.26175556  0.97039642     0.27100
N803        N  0.49926356  0.21891929  0.44830538    -0.35600
N804        N  0.50163955  0.27563589  0.43261354    -0.56200
N805        N  0.49846533  0.28185785  0.54739334    -0.35600
N806        N  0.49943024  0.22683961  0.56313382    -0.56200
C807        C  0.50605234  0.22318731  0.39600971     0.27900
C808        C  0.50455690  0.19721324  0.46530498     0.27900
C809        C  0.50471154  0.30920307  0.53079558     0.27900
C810        C  0.50427621  0.28375798  0.60006114     0.27900
C811        C  0.49773654  0.26609478  0.38176330     0.36600
C812        C  0.49641144  0.29873836  0.43388334     0.36600
C813        C  0.49467266  0.19869769  0.56180713     0.36600
C814        C  0.49495713  0.23217592  0.61379766     0.36600
C815        C  0.51547674  0.20371872  0.37947016    -0.20900
C816        C  0.51444651  0.18728141  0.42307581    -0.20900
C817        C  0.51430264  0.32865606  0.57360522    -0.20900
C818        C  0.51406950  0.31260762  0.61725314    -0.20900
C819        C  0.49010318  0.28332029  0.35064453    -0.22000
C820        C  0.48935050  0.30402546  0.38360646    -0.22000
C821        C  0.48730411  0.18616126  0.61190253    -0.22000
C822        C  0.48744604  0.20733634  0.64480227    -0.22000
C823        C  0.50269907  0.24324134  0.36237310    -0.17300
C824        C  0.49915658  0.18500868  0.51705327    -0.17300
C825        C  0.49974646  0.25985238  0.63335070    -0.17300
C826        C  0.50015464  0.31653199  0.47888912    -0.17300
H827        H  0.52224616  0.20144586  0.34000130     0.15600
H828        H  0.52025165  0.16990989  0.42353911     0.15600
H829        H  0.52062944  0.35196995  0.57351987     0.15600
H830        H  0.52020814  0.32117032  0.65717746     0.15600
H831        H  0.48570600  0.28133494  0.30848263     0.13900
H832        H  0.48447955  0.32121652  0.37179188     0.13900
H833        H  0.48276186  0.16421233  0.62370795     0.13900
H834        H  0.48293839  0.20484670  0.68691112     0.13900
H835        H  0.48861989  0.22796134  0.46982794     0.27100
H836        H  0.48774932  0.26240346  0.52519639     0.27100
O837        O  0.98479488  0.03680587  0.03628123    -0.87400
C838        C  0.94684502  0.47448511  0.91786915     0.88600
Mg839      Mg  0.53074372  0.07190037  0.03413018     1.58100
O840        O  0.96306872  0.44808174  0.03455436    -0.87100
O841        O  0.95485201  0.49960256  0.08693590    -0.74400
C842        C  0.60780413  0.00486323  0.97514396     0.93700
O843        O  0.99973472  0.04505788  0.91195883    -0.74300
O844        O  0.60863870  0.02959769  0.96870875    -0.81800
Mg845      Mg  0.95891795  0.03088206  0.96530208     1.58000
C846        C  0.00444013  0.39675617  0.02132358     0.93600
O847        O  0.91487054  0.01837769  0.00828889    -0.80000
H848        H  0.95786189  0.43997622  0.11233321    -0.05400
C849        C  0.52561663  0.47365664  0.91735868     0.88600
O850        O  0.54485403  0.04507426  0.08748340    -0.74500
O851        O  0.94803614  0.48500730  0.96232405    -0.87300
O852        O  0.98105633  0.39677064  0.00598514    -0.80100
C853        C  0.89659235  0.39203607  0.97355232     0.93700
C854        C  0.89159821  0.99477006  0.02327383     0.93600
Mg855      Mg  0.54052649  0.46906514  0.03220649     1.58000
O856        O  0.58422143  0.48127272  0.98863651    -0.80000
O857        O  0.49989473  0.45472843  0.08591651    -0.74300
O858        O  0.89658084  0.41539270  0.98922438    -0.80100
O859        O  0.97032437  0.07935503  0.96767068    -0.81800
O860        O  0.60326177  0.08475834  0.01032283    -0.80100
C861        C  0.97272343  0.44694928  0.07870703     0.88000
O862        O  0.55147763  0.01500114  0.03569530    -0.87300
O863        O  0.51479168  0.46357813  0.96127914    -0.87400
O864        O  0.54525714  0.00078442  0.91108098    -0.74400
Mg865      Mg  0.92818833  0.45901052  0.03288338     1.58000
O866        O  0.92044901  0.39138035  0.96531171    -0.81800
H867        H  0.98228608  0.04144562  0.11440872    -0.05500
O868        O  0.53685577  0.05223366  0.96312252    -0.87100
H869        H  0.54179280  0.05976888  0.88516034    -0.05400
H870        H  0.55920058  0.01735346  0.11363226    -0.05500
C871        C  0.52702997  0.05299493  0.91891571     0.88000
C872        C  0.97423710  0.02681631  0.08038184     0.88600
C873        C  0.55245090  0.02553405  0.08006729     0.88600
H874        H  0.51766485  0.45914618  0.88316770    -0.05500
O875        O  0.95462009  0.45512916  0.91002091    -0.74600
Mg876      Mg  0.57177874  0.04121793  0.96571112     1.58000
H877        H  0.93985372  0.48261452  0.88456223    -0.05500
C878        C  0.49487757  0.10330064  0.97513516     0.93600
O879        O  0.57931436  0.10903288  0.03205521    -0.81800
C880        C  0.60322319  0.10826965  0.02502402     0.93700
O881        O  0.89120732  0.47032116  0.03086131    -0.81800
Mg882      Mg  0.96888083  0.42844922  0.96313684     1.58200
O883        O  0.51832063  0.10345398  0.99080328    -0.80100
O884        O  0.52905506  0.42061732  0.02898577    -0.81800
O885        O  0.51352811  0.46342049  0.53479998    -0.87400
C886        C  0.55195372  0.02536260  0.41696710     0.88600
Mg887      Mg  0.96737841  0.42910310  0.53312007     1.58100
O888        O  0.53688936  0.05227152  0.53437244    -0.87100
O889        O  0.54437545  0.00011169  0.58581034    -0.74400
C890        C  0.89189673  0.99740900  0.47342875     0.93700
O891        O  0.49838124  0.45506104  0.41031907    -0.74300
O892        O  0.89105084  0.47282563  0.46580667    -0.81800
Mg893      Mg  0.53897534  0.46844322  0.46386673     1.58000
C894        C  0.49660806  0.10499071  0.52207477     0.93600
O895        O  0.58258305  0.47971520  0.50732270    -0.80000
H896        H  0.54173315  0.05962502  0.61245314    -0.05400
C897        C  0.97446041  0.02820317  0.41657565     0.88600
O898        O  0.95410425  0.45659144  0.58636268    -0.74500
O899        O  0.55076617  0.01463073  0.46117291    -0.87300
O900        O  0.51993524  0.10463478  0.50741490    -0.80100
C901        C  0.60389220  0.10762519  0.47334306     0.93700
C902        C  0.60628046  0.00307218  0.52152390     0.93600
Mg903      Mg  0.95939285  0.03261096  0.53138774     1.58000
O904        O  0.91545135  0.02090908  0.48812771    -0.80000
O905        O  0.00007380  0.04597808  0.58500854    -0.74300
O906        O  0.60339140  0.08381965  0.48766139    -0.80100
O907        O  0.52645101  0.41973669  0.46646194    -0.81800
O908        O  0.89514517  0.41699011  0.50703305    -0.80100
C909        C  0.52708975  0.05322642  0.57849101     0.88000
O910        O  0.94750962  0.48653596  0.53435919    -0.87300
O911        O  0.98520512  0.03798873  0.46073574    -0.87400
O912        O  0.95460037  0.50119100  0.40990418    -0.74400
Mg913      Mg  0.57129647  0.04046249  0.53166348     1.58000
O914        O  0.58027974  0.10895739  0.46638353    -0.81800
H915        H  0.51636176  0.45837944  0.61269308    -0.05500
O916        O  0.96173866  0.44894241  0.46183599    -0.87100
H917        H  0.95641438  0.44115775  0.38392401    -0.05400
H918        H  0.94001668  0.48456284  0.61229239    -0.05500
C919        C  0.97126717  0.44775186  0.41760684     0.88000
C920        C  0.52448961  0.47308782  0.57887655     0.88600
C921        C  0.94655393  0.47613165  0.57877450     0.88600
H922        H  0.98269835  0.04285670  0.38269713    -0.05500
O923        O  0.54481845  0.04525659  0.40986873    -0.74600
Mg924      Mg  0.92736414  0.46062217  0.46365234     1.58000
H925        H  0.55847427  0.01704903  0.38325822    -0.05500
C926        C  0.50174992  0.39611492  0.47442575     0.93600
O927        O  0.91877692  0.39283500  0.53147119    -0.81800
C928        C  0.89500944  0.39363278  0.52315962     0.93700
O929        O  0.60749065  0.02794690  0.52860858    -0.81800
Mg930      Mg  0.53142132  0.07251045  0.46364056     1.58200
O931        O  0.97854401  0.39654706  0.49016464    -0.80100
O932        O  0.97182413  0.08132685  0.52884086    -0.81800
N933        N  0.77211520  0.99654965  0.06344085    -0.35600
N934        N  0.71708928  0.99784482  0.04949770    -0.56200
N935        N  0.72809122  0.00479023  0.93479940    -0.35600
N936        N  0.78104190  0.99946310  0.94857090    -0.56200
C937        C  0.76158625  0.99072550  0.11366054     0.27900
C938        C  0.79501565  0.99105906  0.06063466     0.27900
C939        C  0.69988176  0.99988555  0.93681245     0.27900
C940        C  0.73364059  0.00093467  0.88379783     0.27900
C941        C  0.71879603  0.99978177  0.10302291     0.36600
C942        C  0.69518735  0.00334398  0.03486481     0.36600
C943        C  0.80704469  0.00166659  0.96418272     0.36600
C944        C  0.78352684  0.00543989  0.89601077     0.36600
C945        C  0.77805596  0.98141877  0.14313143    -0.20900
C946        C  0.79913111  0.98167378  0.10976963    -0.20900
C947        C  0.68757664  0.99335335  0.88641282    -0.20900
C948        C  0.70877821  0.99391908  0.85307582    -0.20900
C949        C  0.69754930  0.00607982  0.12249462    -0.22000
C950        C  0.68252338  0.00819693  0.07941573    -0.22000
C951        C  0.82595594  0.00866813  0.92105284    -0.22000
C952        C  0.81108574  0.01109063  0.87797883    -0.22000
C953        C  0.73885181  0.99538945  0.13472188    -0.17300
C954        C  0.81356374  0.99615486  0.01612142    -0.17300
C955        C  0.76075919  0.00448379  0.86355324    -0.17300
C956        C  0.68529495  0.00241187  0.98222796    -0.17300
H957        H  0.77541171  0.97537777  0.18461918     0.15600
H958        H  0.81585015  0.97596264  0.12071413     0.15600
H959        H  0.66553249  0.98858696  0.87479400     0.15600
H960        H  0.70608112  0.98955195  0.81090904     0.15600
H961        H  0.69327745  0.00888982  0.16344289     0.13900
H962        H  0.66434636  0.01280557  0.08079182     0.13900
H963        H  0.84814023  0.01162015  0.92056265     0.13900
H964        H  0.81956730  0.01629928  0.83792863     0.13900
H965        H  0.76644935  0.00707665  0.03469388     0.27100
H966        H  0.74356634  0.01326786  0.96529083     0.27100
N967        N  0.77204910  0.99818021  0.43496123    -0.35600
N968        N  0.71689651  0.99874331  0.44877987    -0.56200
N969        N  0.72651838  0.00295915  0.56324570    -0.35600
N970        N  0.78039273  0.99965783  0.54929251    -0.56200
C971        C  0.76040615  0.99074864  0.38561120     0.27900
C972        C  0.79391295  0.99122269  0.43840726     0.27900
C973        C  0.69797441  0.99701752  0.56073553     0.27900
C974        C  0.73172874  0.99796966  0.61374302     0.27900
C975        C  0.71976603  0.00258738  0.39567758     0.36600
C976        C  0.69545081  0.00477991  0.46383065     0.36600
C977        C  0.80720391  0.00412933  0.53327022     0.36600
C978        C  0.78292547  0.00621344  0.60161061     0.36600
C979        C  0.77492595  0.97874910  0.35746701    -0.20900
C980        C  0.79610519  0.97908012  0.39078484    -0.20900
C981        C  0.68494464  0.98830990  0.61030179    -0.20900
C982        C  0.70622022  0.98889369  0.64371615    -0.20900
C983        C  0.69995601  0.01098268  0.37674715    -0.22000
C984        C  0.68445467  0.01227131  0.41991821    -0.22000
C985        C  0.82676942  0.01326273  0.57579254    -0.22000
C986        C  0.81137002  0.01457508  0.61909085    -0.22000
C987        C  0.73881400  0.99683824  0.36397597    -0.17300
C988        C  0.81349581  0.99796562  0.48177453    -0.17300
C989        C  0.75939482  0.00317660  0.63422934    -0.17300
C990        C  0.68410884  0.00125012  0.51590077    -0.17300
H991        H  0.77106243  0.97110174  0.31677307     0.15600
H992        H  0.81173931  0.97177115  0.38073925     0.15600
H993        H  0.66253293  0.98249366  0.62142790     0.15600
H994        H  0.70331342  0.98354628  0.68550695     0.15600
H995        H  0.69669790  0.01528343  0.33605574     0.13900
H996        H  0.66685727  0.01773673  0.41898360     0.13900
H997        H  0.84963576  0.01812569  0.57577559     0.13900
H998        H  0.82004241  0.02074985  0.65893451     0.11700
H999        H  0.76813280  0.01093249  0.46208314     0.27100
H1000       H  0.74246640  0.01317325  0.53386762     0.27100
N1001       N  0.72529444  0.22747865  0.06437762    -0.35600
N1002       N  0.78247021  0.28141635  0.04918579    -0.56200
N1003       N  0.77310144  0.27469849  0.93446500    -0.35600
N1004       N  0.71778025  0.21871927  0.94961900    -0.56200
C1005       C  0.73603656  0.23240919  0.11453163     0.27900
C1006       C  0.70203212  0.19924935  0.06229138     0.27900
C1007       C  0.80176845  0.29707418  0.93640458     0.27900
C1008       C  0.76750215  0.26429446  0.88406346     0.27900
C1009       C  0.78019825  0.28308958  0.10235038     0.36600
C1010       C  0.80551425  0.30787685  0.03355127     0.36600
C1011       C  0.69081965  0.19655145  0.96546015     0.36600
C1012       C  0.71603080  0.22145970  0.89656401     0.36600
C1013       C  0.71928886  0.20701192  0.14465140    -0.20900
C1014       C  0.69782872  0.18616551  0.11178464    -0.20900
C1015       C  0.81443346  0.30111537  0.88655803    -0.20900
C1016       C  0.79290517  0.28042163  0.85364850    -0.20900
C1017       C  0.80211405  0.31062272  0.12067382    -0.22000
C1018       C  0.81820912  0.32627869  0.07717159    -0.22000
C1019       C  0.67203064  0.18485818  0.92206605    -0.22000
C1020       C  0.68795563  0.20067178  0.87853506    -0.22000
C1021       C  0.75942516  0.25965247  0.13483884    -0.17300
C1022       C  0.68339545  0.18556956  0.01791334    -0.17300
C1023       C  0.73974512  0.24172571  0.86387384    -0.17300
C1024       C  0.81638323  0.31504306  0.98104548    -0.17300
H1025       H  0.72207770  0.20384822  0.18619975     0.15600
H1026       H  0.68090753  0.16394332  0.12318686     0.15600
H1027       H  0.83686070  0.31738961  0.87496758     0.15600
H1028       H  0.79568079  0.27768506  0.81190320     0.15600
H1029       H  0.80621831  0.31857029  0.16117033     0.13900
H1030       H  0.83717916  0.34862137  0.07767592     0.13900
H1031       H  0.64923126  0.16674322  0.92172387     0.13900
H1032       H  0.67977607  0.19718800  0.83821803     0.13900
H1033       H  0.73119466  0.24347786  0.03509924     0.27100
H1034       H  0.75741206  0.26917513  0.96418766     0.27100
N1035       N  0.72000452  0.21685142  0.54874623    -0.35600
N1036       N  0.72734943  0.22484008  0.43408617    -0.56200
N1037       N  0.78372190  0.27968993  0.44950693    -0.35600
N1038       N  0.77476547  0.27336847  0.56412370    -0.56200
C1039       C  0.69266140  0.19570725  0.53201322     0.27900
C1040       C  0.71800344  0.22122486  0.60121649     0.27900
C1041       C  0.77959798  0.28147540  0.39691825     0.27900
C1042       C  0.80459947  0.30717771  0.46607888     0.27900
C1043       C  0.70330585  0.19712141  0.43520911     0.36600
C1044       C  0.73687852  0.23007761  0.38329142     0.36600
C1045       C  0.76945539  0.26378155  0.61487840     0.36600
C1046       C  0.80285754  0.29677653  0.56282097     0.36600
C1047       C  0.67319833  0.18616511  0.57465751    -0.20900
C1048       C  0.68915002  0.20228643  0.61819595    -0.20900
C1049       C  0.79840743  0.31033246  0.37971258    -0.20900
C1050       C  0.81419585  0.32653527  0.42328418    -0.20900
C1051       C  0.69750750  0.18471662  0.38489599    -0.22000
C1052       C  0.71881914  0.20551229  0.35208143    -0.22000
C1053       C  0.79434660  0.28116877  0.64584405    -0.22000
C1054       C  0.81543831  0.30212161  0.61292518    -0.22000
C1055       C  0.68508441  0.18383816  0.47997890    -0.17300
C1056       C  0.74173099  0.24112229  0.63453327    -0.17300
C1057       C  0.81637705  0.31484573  0.51804366    -0.17300
C1058       C  0.75993419  0.25760509  0.36373641    -0.17300
H1059       H  0.64987296  0.16931579  0.57449634     0.15600
H1060       H  0.68044286  0.20025673  0.65786488     0.15600
H1061       H  0.80054831  0.31886882  0.33987983     0.15600
H1062       H  0.83090542  0.34992348  0.42336423     0.15600
H1063       H  0.67950616  0.16312159  0.37290061     0.13900
H1064       H  0.72044480  0.20301927  0.30983682     0.13900
H1065       H  0.79692894  0.27925696  0.68796074     0.13900
H1066       H  0.83737345  0.31956000  0.62468316     0.13900
H1067       H  0.73949994  0.22563186  0.52682800     0.27100
H1068       H  0.77503778  0.26026312  0.47166295     0.27100
C1069       C  0.73353906  0.21471748  0.77737456    -0.12400
C1070       C  0.73593777  0.23938273  0.80505578     0.09800
C1071       C  0.73756577  0.26332076  0.77622494    -0.12400
C1072       C  0.73816308  0.26324420  0.72084116    -0.12400
C1073       C  0.73715715  0.23922976  0.69313472     0.09800
C1074       C  0.73409472  0.21462342  0.72179411    -0.12400
H1075       H  0.73243119  0.19611042  0.79883742     0.13700
H1076       H  0.73947327  0.28256252  0.79677496     0.13700
H1077       H  0.74045900  0.28239981  0.69950096     0.13700
H1078       H  0.73333500  0.19591646  0.70117578     0.13700
C1079       C  0.73908857  0.26373091  0.22238258    -0.12400
C1080       C  0.76200418  0.26327922  0.19355767     0.09800
C1081       C  0.78572989  0.26359516  0.22107704    -0.12400
C1082       C  0.78581180  0.26305913  0.27663346    -0.12400
C1083       C  0.76212695  0.26210317  0.30525931     0.09800
C1084       C  0.73915934  0.26317005  0.27771954    -0.12400
H1085       H  0.72060105  0.26345138  0.20186721     0.13700
H1086       H  0.80352951  0.26310693  0.19951659     0.13700
H1087       H  0.80369814  0.26222035  0.29724931     0.13700
H1088       H  0.72075038  0.26250145  0.29915859     0.13700
C1089       C  0.76615041  0.02992997  0.77625692    -0.12400
C1090       C  0.76452563  0.00589303  0.80477059     0.09800
C1091       C  0.76343742  0.98190083  0.77680511    -0.12400
C1092       C  0.76293900  0.98149759  0.72125085    -0.12400
C1093       C  0.76341552  0.00503166  0.69287855     0.09800
C1094       C  0.76552749  0.02946490  0.72079993    -0.12400
H1095       H  0.76680845  0.04853976  0.79707111     0.13700
H1096       H  0.76119152  0.46263159  0.79801309     0.13700
H1097       H  0.76050558  0.46201578  0.70034667     0.13700
H1098       H  0.76581910  0.04776298  0.69958917     0.13700
C1099       C  0.76054729  0.02031890  0.27683979    -0.12400
C1100       C  0.73683412  0.99765022  0.30523856     0.09800
C1101       C  0.71280323  0.47442258  0.27740005    -0.12400
C1102       C  0.71292099  0.47394824  0.22181802    -0.12400
C1103       C  0.73697061  0.99673736  0.19352432     0.09800
C1104       C  0.76057216  0.01991617  0.22152909    -0.12400
H1105       H  0.77938112  0.03796644  0.29766503     0.13700
H1106       H  0.69468194  0.45636292  0.29872075     0.13700
H1107       H  0.69485262  0.45555245  0.20087796     0.13700
H1108       H  0.77939094  0.03731806  0.20041315     0.13700
C1109       C  0.63240194  0.13444435  0.46896217    -0.12300
C1110       C  0.65642330  0.15691645  0.47203328    -0.13900
C1111       C  0.84369919  0.34313184  0.52564475    -0.12300
C1112       C  0.86687525  0.36651389  0.52810142    -0.13900
C1113       C  0.65631682  0.00128509  0.52341046    -0.12300
C1114       C  0.63324512  0.00169959  0.52599886    -0.13900
C1115       C  0.84129830  0.99809527  0.47324301    -0.12300
C1116       C  0.86460128  0.99820227  0.46964232    -0.13900
C1117       C  0.65516766  0.15824736  0.02643115    -0.12300
C1118       C  0.63143769  0.13544474  0.02963429    -0.13900
C1119       C  0.84472024  0.34216289  0.97268952    -0.12300
C1120       C  0.86843928  0.36489118  0.96926730    -0.13900
C1121       C  0.65789529  0.00320983  0.97442674    -0.12300
C1122       C  0.63499199  0.00390535  0.97116655    -0.13900
C1123       C  0.84104286  0.99552829  0.02414419    -0.12300
C1124       C  0.86417839  0.99527848  0.02741276    -0.13900
C1125       C  0.49801796  0.13333196  0.52701926    -0.12300
C1126       C  0.49874969  0.15698157  0.52454982    -0.13900
C1127       C  0.50004382  0.34431758  0.47156678    -0.12300
C1128       C  0.50037208  0.36778449  0.46939133    -0.13900
C1129       C  0.52555302  0.26601377  0.72022421    -0.12400
C1130       C  0.50133905  0.26408270  0.69191297     0.09800
C1131       C  0.97743333  0.26291948  0.71989395    -0.12400
C1132       C  0.97717745  0.26240374  0.77546778    -0.12400
C1133       C  0.50075672  0.26296557  0.80363411     0.09800
C1134       C  0.52525795  0.26544632  0.77561628    -0.12400
H1135       H  0.54413184  0.26675453  0.69928308     0.13700
H1136       H  0.95843380  0.26111823  0.69871266     0.13700
H1137       H  0.95803598  0.26033294  0.79648593     0.13700
H1138       H  0.54366458  0.26587910  0.79669972     0.13700
C1139       C  0.98319086  0.21575911  0.22017411    -0.12400
C1140       C  0.50469036  0.24039424  0.19176650     0.09800
C1141       C  0.52748066  0.26438997  0.21983724    -0.12400
C1142       C  0.52760646  0.26461222  0.27525771    -0.12400
C1143       C  0.50499711  0.24080323  0.30375085     0.09800
C1144       C  0.98333655  0.21595831  0.27577101    -0.12400
H1145       H  0.96548458  0.19699163  0.19932567     0.13700
H1146       H  0.54445247  0.28353156  0.19872453     0.13700
H1147       H  0.54467481  0.28391164  0.29602819     0.13700
H1148       H  0.96575639  0.19732877  0.29695946     0.13700
C1149       C  0.49646466  0.15506802  0.97141909    -0.12300
C1150       C  0.49579592  0.13141207  0.96958659    -0.13900
C1151       C  0.00245516  0.34485395  0.02400366    -0.12300
C1152       C  0.00334313  0.36857882  0.02631581    -0.13900
N1153       N  0.49771049  0.71757418  0.04730952    -0.35600
N1154       N  0.00132500  0.77489779  0.06280842    -0.56200
N1155       N  0.49843488  0.78111840  0.94807791    -0.35600
N1156       N  0.49804124  0.72535822  0.93238673    -0.56200
C1157       C  0.00487200  0.72211653  0.09953344     0.27900
C1158       C  0.50284639  0.69574348  0.03027023     0.27900
C1159       C  0.00520340  0.80867417  0.96459088     0.27900
C1160       C  0.50400772  0.78274142  0.89537084     0.27900
C1161       C  0.99750904  0.76561921  0.11373489     0.36600
C1162       C  0.99718589  0.79868463  0.06160442     0.36600
C1163       C  0.49300826  0.69711183  0.93369153     0.36600
C1164       C  0.49399146  0.73086068  0.88157886     0.36600
C1165       C  0.51441828  0.70272336  0.11588823    -0.20900
C1166       C  0.51303629  0.68603945  0.07234381    -0.20900
C1167       C  0.51493813  0.82796958  0.92166958    -0.20900
C1168       C  0.51416678  0.81160814  0.87807230    -0.20900
C1169       C  0.99090768  0.78362772  0.14492703    -0.22000
C1170       C  0.99084042  0.80462888  0.11196848    -0.22000
C1171       C  0.48587367  0.68466243  0.88342240    -0.22000
C1172       C  0.48648271  0.70601733  0.85044079    -0.22000
C1173       C  0.00201513  0.74251405  0.13316309    -0.17300
C1174       C  0.49717978  0.68331225  0.97859190    -0.17300
C1175       C  0.49910129  0.75865406  0.86210719    -0.17300
C1176       C  0.00135728  0.81650082  0.01658563    -0.17300
H1177       H  0.02149096  0.70069246  0.15526055     0.15600
H1178       H  0.51888190  0.66869841  0.07179801     0.15600
H1179       H  0.02158864  0.85135917  0.92163503     0.15600
H1180       H  0.52027615  0.82001478  0.83811489     0.15600
H1181       H  0.98686233  0.78204520  0.18717129     0.13900
H1182       H  0.98691991  0.82245683  0.12385097     0.13900
H1183       H  0.48124837  0.66267728  0.87154980     0.13900
H1184       H  0.48230085  0.70365230  0.80820217     0.13900
H1185       H  0.48699150  0.72655904  0.02593898     0.27100
H1186       H  0.48762452  0.76179641  0.97035897     0.27100
N1187       N  0.49927952  0.71893356  0.44830873    -0.35600
N1188       N  0.50162908  0.77565534  0.43262516    -0.56200
N1189       N  0.49850464  0.78188956  0.54738184    -0.35600
N1190       N  0.49948509  0.72686247  0.56311853    -0.56200
C1191       C  0.50607436  0.72321756  0.39601572     0.27900
C1192       C  0.50458544  0.69723169  0.46529351     0.27900
C1193       C  0.50473411  0.80923104  0.53078428     0.27900
C1194       C  0.50436021  0.78380384  0.60003151     0.27900
C1195       C  0.49771676  0.76610379  0.38178014     0.36600
C1196       C  0.49637301  0.79874108  0.43389989     0.36600
C1197       C  0.49474582  0.69872500  0.56180933     0.36600
C1198       C  0.49505150  0.73222165  0.61379273     0.36600
C1199       C  0.51551953  0.70376606  0.37946677    -0.20900
C1200       C  0.51448995  0.68731993  0.42305749    -0.20900
C1201       C  0.51436940  0.82869847  0.57357304    -0.20900
C1202       C  0.51417447  0.81266085  0.61720992    -0.20900
C1203       C  0.49004586  0.78330451  0.35067105    -0.22000
C1204       C  0.48928152  0.80400497  0.38363260    -0.22000
C1205       C  0.48743040  0.68621506  0.61192861    -0.22000
C1206       C  0.48758666  0.70740138  0.64482369    -0.22000
C1207       C  0.50270796  0.74326770  0.36238235    -0.17300
C1208       C  0.49919953  0.68502059  0.51703888    -0.17300
C1209       C  0.49983836  0.75990284  0.63332748    -0.17300
C1210       C  0.50012097  0.81654144  0.47890118    -0.17300
H1211       H  0.52230370  0.70151032  0.34000040     0.15600
H1212       H  0.52031241  0.66996076  0.42350928     0.15600
H1213       H  0.52069690  0.85201268  0.57348193     0.15600
H1214       H  0.52034721  0.82123372  0.65712177     0.15600
H1215       H  0.48563055  0.78130579  0.30851512     0.13900
H1216       H  0.48438504  0.82117924  0.37182337     0.13900
H1217       H  0.48291702  0.66427822  0.62375247     0.13900
H1218       H  0.48312236  0.70493321  0.68694743     0.13900
H1219       H  0.48862857  0.72796944  0.46984077     0.27100
H1220       H  0.48776535  0.76242484  0.52521054     0.27100
O1221       O  0.98477768  0.53677380  0.03613609    -0.87400
C1222       C  0.94681632  0.97450321  0.91799467     0.88600
Mg1223     Mg  0.53075630  0.57193968  0.03424796     1.58100
O1224       O  0.96306491  0.94807271  0.03459469    -0.87100
O1225       O  0.95490583  0.99959484  0.08705435    -0.74400
C1226       C  0.60781227  0.50495326  0.97513807     0.93700
O1227       O  0.99977770  0.54505471  0.91184806    -0.74300
O1228       O  0.60861658  0.52966881  0.96866842    -0.81800
Mg1229     Mg  0.95892944  0.53086398  0.96513658     1.58000
C1230       C  0.00446896  0.89678093  0.02129443     0.93600
O1231       O  0.91485994  0.51833402  0.00805629    -0.80000
H1232       H  0.95783511  0.93986002  0.11233889    -0.05400
C1233       C  0.52564384  0.97361260  0.91736197     0.88600
O1234       O  0.54487496  0.54510558  0.08757003    -0.74500
O1235       O  0.94802359  0.98502339  0.96245902    -0.87300
O1236       O  0.98107576  0.89679317  0.00600196    -0.80100
C1237       C  0.89657482  0.89204841  0.97365900     0.93700
C1238       C  0.89159108  0.49473287  0.02307375     0.93600
Mg1239     Mg  0.54052858  0.96905155  0.03220316     1.58000
O1240       O  0.58419118  0.98118602  0.98857682    -0.80000
O1241       O  0.49991346  0.95479799  0.08590771    -0.74300
O1242       O  0.89656096  0.91540957  0.98930509    -0.80100
O1243       O  0.97032488  0.57933679  0.96754357    -0.81800
O1244       O  0.60324317  0.58476543  0.01040570    -0.80100
C1245       C  0.97270662  0.94688394  0.07872442     0.88000
O1246       O  0.55143836  0.51500840  0.03574097    -0.87300
O1247       O  0.51479884  0.96356389  0.96128319    -0.87400
O1248       O  0.54521086  0.50083766  0.91110359    -0.74400
Mg1249     Mg  0.92819265  0.95901788  0.03299746     1.58000
O1250       O  0.92043284  0.89139417  0.96541663    -0.81800
H1251       H  0.98221081  0.54147318  0.11422948    -0.05500
O1252       O  0.53683047  0.55226632  0.96322572    -0.87100
H1253       H  0.54175128  0.55978909  0.88525944    -0.05400
H1254       H  0.55919064  0.51735002  0.11366748    -0.05500
C1255       C  0.52699448  0.55301659  0.91902314     0.88000
C1256       C  0.97418760  0.52681900  0.08023304     0.88600
C1257       C  0.55243815  0.52554225  0.08012331     0.88600
H1258       H  0.51769747  0.95908382  0.88319443    -0.05500
O1259       O  0.95458482  0.95514425  0.91011303    -0.74600
Mg1260     Mg  0.57174286  0.54125285  0.96576370     1.58000
H1261       H  0.93981407  0.98263551  0.88470734    -0.05500
C1262       C  0.49487734  0.60331902  0.97523311     0.93600
O1263       O  0.57933456  0.60907866  0.03211775    -0.81800
C1264       C  0.60323143  0.60829311  0.02507622     0.93700
O1265       O  0.89121841  0.97035734  0.03103928    -0.81800
Mg1266     Mg  0.96886762  0.92845848  0.96317082     1.58200
O1267       O  0.51831970  0.60347975  0.99092601    -0.80100
O1268       O  0.52901997  0.92059310  0.02905399    -0.81800
O1269       O  0.51348558  0.96343236  0.53489788    -0.87400
C1270       C  0.55204325  0.52533767  0.41687802     0.88600
Mg1271     Mg  0.96743253  0.92906771  0.53293808     1.58100
O1272       O  0.53691794  0.55225097  0.53419755    -0.87100
O1273       O  0.54438495  0.50010503  0.58573660    -0.74400
C1274       C  0.89186800  0.49746285  0.47347889     0.93700
O1275       O  0.49827028  0.95507867  0.41042598    -0.74300
O1276       O  0.89108700  0.97277561  0.46572681    -0.81800
Mg1277     Mg  0.53888694  0.96844700  0.46389079     1.58000
C1278       C  0.49664319  0.60497723  0.52186779     0.93600
O1279       O  0.58253482  0.97970345  0.50720837    -0.80000
H1280       H  0.54177091  0.55962307  0.61227001    -0.05400
C1281       C  0.97441216  0.52825091  0.41678935     0.88600
O1282       O  0.95410910  0.95652064  0.58616901    -0.74500
O1283       O  0.55084001  0.51461627  0.46109944    -0.87300
O1284       O  0.51995801  0.60462107  0.50711859    -0.80100
C1285       C  0.60392642  0.60760358  0.47327692     0.93700
C1286       C  0.60631504  0.50309730  0.52163463     0.93600
Mg1287     Mg  0.95934218  0.53264603  0.53158159     1.58000
O1288       O  0.91540843  0.52094857  0.48827685    -0.80000
O1289       O  0.00004356  0.54600970  0.58518119    -0.74300
O1290       O  0.60343204  0.58380397  0.48760865    -0.80100
O1291       O  0.52633211  0.91972334  0.46644656    -0.81800
O1292       O  0.89520457  0.91692798  0.50686604    -0.80100
C1293       C  0.52712317  0.55321299  0.57831281     0.88000
O1294       O  0.94757457  0.98649673  0.53415315    -0.87300
O1295       O  0.98515556  0.53802359  0.46095387    -0.87400
O1296       O  0.95464532  0.00114174  0.40970996    -0.74400
Mg1297     Mg  0.57132350  0.54045625  0.53159315     1.58000
O1298       O  0.58031247  0.60892099  0.46623583    -0.81800
H1299       H  0.51635777  0.95838777  0.61277800    -0.05500
O1300       O  0.96180611  0.94890306  0.46163306    -0.87100
H1301       H  0.95654721  0.94114512  0.38370616    -0.05400
H1302       H  0.94001410  0.98449244  0.61206526    -0.05500
C1303       C  0.97137314  0.94773247  0.41742702     0.88000
C1304       C  0.52447178  0.97309681  0.57896108     0.88600
C1305       C  0.94657799  0.97607368  0.57856567     0.88600
H1306       H  0.98265182  0.54291349  0.38292307    -0.05500
O1307       O  0.54489625  0.54521952  0.40972836    -0.74600
Mg1308     Mg  0.92741501  0.96057351  0.46347045     1.58000
H1309       H  0.55858462  0.51702238  0.38319908    -0.05500
C1310       C  0.50164118  0.89610274  0.47450238     0.93600
O1311       O  0.91884810  0.89277169  0.53122019    -0.81800
C1312       C  0.89507613  0.89356547  0.52294721     0.93700
O1313       O  0.60751680  0.52797009  0.52864785    -0.81800
Mg1314     Mg  0.53146559  0.57247782  0.46343264     1.58200
O1315       O  0.97863786  0.89655017  0.48998648    -0.80100
O1316       O  0.97177650  0.58134611  0.52899625    -0.81800
N1317       N  0.77202960  0.49639762  0.06348416    -0.35600
N1318       N  0.71700441  0.49777042  0.04947577    -0.56200
N1319       N  0.72810127  0.50486767  0.93474624    -0.35600
N1320       N  0.78098639  0.49937062  0.94854079    -0.56200
C1321       C  0.76177332  0.49101048  0.11389468     0.27900
C1322       C  0.79522465  0.49135210  0.06086857     0.27900
C1323       C  0.69992882  0.50007097  0.93672844     0.27900
C1324       C  0.73366732  0.50106041  0.88372496     0.27900
C1325       C  0.71857127  0.49949082  0.10302844     0.36600
C1326       C  0.69503372  0.50316977  0.03485493     0.36600
C1327       C  0.80691624  0.50138471  0.96409708     0.36600
C1328       C  0.78341938  0.50520970  0.89592981     0.36600
C1329       C  0.77874140  0.48244669  0.14370439    -0.20900
C1330       C  0.79982279  0.48271000  0.11035489    -0.20900
C1331       C  0.68768292  0.49369823  0.88627896    -0.20900
C1332       C  0.70886876  0.49422665  0.85295365    -0.20900
C1333       C  0.69713660  0.50551185  0.12252051    -0.22000
C1334       C  0.68217074  0.50771817  0.07943928    -0.22000
C1335       C  0.82571640  0.50811184  0.92086225    -0.22000
C1336       C  0.81086563  0.51057267  0.87780510    -0.22000
C1337       C  0.73877799  0.49534044  0.13477019    -0.17300
C1338       C  0.81356156  0.49612497  0.01613874    -0.17300
C1339       C  0.76071722  0.50441868  0.86350222    -0.17300
C1340       C  0.68528097  0.50246692  0.98218004    -0.17300
H1341       H  0.77641578  0.47687250  0.18539575     0.15600
H1342       H  0.81685328  0.47748293  0.12153489     0.15600
H1343       H  0.66567388  0.48902679  0.87462567     0.15600
H1344       H  0.70619199  0.48992679  0.81076596     0.15600
H1345       H  0.69273618  0.50813498  0.16348740     0.13900
H1346       H  0.66390932  0.51219916  0.08083978     0.13900
H1347       H  0.84783745  0.51090510  0.92030158     0.13900
H1348       H  0.81929424  0.51563353  0.83770741     0.13900
H1349       H  0.76587636  0.50625593  0.03428975     0.27100
H1350       H  0.74354316  0.51322591  0.96529212     0.27100
N1351       N  0.77195845  0.49812599  0.43484957    -0.35600
N1352       N  0.71686950  0.49877813  0.44881447    -0.56200
N1353       N  0.72657149  0.50303828  0.56327910    -0.35600
N1354       N  0.78037642  0.49963240  0.54919228    -0.56200
C1355       C  0.76032148  0.49073118  0.38548905     0.27900
C1356       C  0.79387578  0.49124243  0.43821273     0.27900
C1357       C  0.69804508  0.49714894  0.56082971     0.27900
C1358       C  0.73178608  0.49802520  0.61375934     0.27900
C1359       C  0.71962028  0.50248540  0.39567890     0.36600
C1360       C  0.69540538  0.50477974  0.46388980     0.36600
C1361       C  0.80717764  0.50410308  0.53311226     0.36600
C1362       C  0.78293251  0.50616114  0.60152538     0.36600
C1363       C  0.77491065  0.47884259  0.35724118    -0.20900
C1364       C  0.79611557  0.47919110  0.39051667    -0.20900
C1365       C  0.68504100  0.48847580  0.61042199    -0.20900
C1366       C  0.70630785  0.48901029  0.64378678    -0.20900
C1367       C  0.69970566  0.51074166  0.37674803    -0.22000
C1368       C  0.68427374  0.51210300  0.41995783    -0.22000
C1369       C  0.82675649  0.51320570  0.57561708    -0.22000
C1370       C  0.81137484  0.51449264  0.61896290    -0.22000
C1371       C  0.73866121  0.49674768  0.36394642    -0.17300
C1372       C  0.81346063  0.49797618  0.48157858    -0.17300
C1373       C  0.75942959  0.50314736  0.63418824    -0.17300
C1374       C  0.68414837  0.50134178  0.51600680    -0.17300
H1375       H  0.77107621  0.47125852  0.31650941     0.15600
H1376       H  0.81180034  0.47195944  0.38039205     0.15600
H1377       H  0.66264468  0.48269421  0.62159057     0.15600
H1378       H  0.70341311  0.48366258  0.68557778     0.15600
H1379       H  0.69633375  0.51490091  0.33603309     0.13900
H1380       H  0.66662270  0.51749176  0.41903355     0.13900
H1381       H  0.84962133  0.51806426  0.57555858     0.13900
H1382       H  0.82005872  0.52064070  0.65880496     0.11700
H1383       H  0.76800276  0.51081125  0.46204490     0.27100
H1384       H  0.74250181  0.51321420  0.53386465     0.27100
N1385       N  0.72537814  0.72738870  0.06436925    -0.35600
N1386       N  0.78247725  0.78138231  0.04926838    -0.56200
N1387       N  0.77304497  0.77480085  0.93457439    -0.35600
N1388       N  0.71777029  0.71879027  0.94960429    -0.56200
C1389       C  0.73610303  0.73229721  0.11452885     0.27900
C1390       C  0.70212846  0.69915702  0.06222847     0.27900
C1391       C  0.80177962  0.79702661  0.93658972     0.27900
C1392       C  0.76746506  0.76434969  0.88419994     0.27900
C1393       C  0.78019638  0.78302406  0.10243403     0.36600
C1394       C  0.80549859  0.80786455  0.03367444     0.36600
C1395       C  0.69078621  0.69668621  0.96549912     0.36600
C1396       C  0.71590498  0.72174432  0.89664101     0.36600
C1397       C  0.71936783  0.70687661  0.14460096    -0.20900
C1398       C  0.69793035  0.68603656  0.11168854    -0.20900
C1399       C  0.81451572  0.80090339  0.88684501    -0.20900
C1400       C  0.79295734  0.78026493  0.85390568    -0.20900
C1401       C  0.80208625  0.81056004  0.12079970    -0.22000
C1402       C  0.81817463  0.82625162  0.07731638    -0.22000
C1403       C  0.67186053  0.68525242  0.92222937    -0.22000
C1404       C  0.68772218  0.70117315  0.87872642    -0.22000
C1405       C  0.75944516  0.75955104  0.13487971    -0.17300
C1406       C  0.68344246  0.68555775  0.01787785    -0.17300
C1407       C  0.73963691  0.74196544  0.86392905    -0.17300
C1408       C  0.81638558  0.81502979  0.98119079    -0.17300
H1409       H  0.72213842  0.70370067  0.18615206     0.15600
H1410       H  0.68100162  0.66381088  0.12305711     0.15600
H1411       H  0.83700955  0.81703536  0.87534453     0.15600
H1412       H  0.79576936  0.77743167  0.81221700     0.15600
H1413       H  0.80618243  0.81848209  0.16131215     0.13900
H1414       H  0.83713508  0.84859991  0.07784881     0.13900
H1415       H  0.64900437  0.66725502  0.92195941     0.13900
H1416       H  0.67943092  0.69789468  0.83850347     0.13900
H1417       H  0.73126291  0.74341017  0.03513862     0.27100
H1418       H  0.75731375  0.76944872  0.96417409     0.27100
N1419       N  0.71990988  0.71698964  0.54877487    -0.35600
N1420       N  0.72734225  0.72480642  0.43412566    -0.56200
N1421       N  0.78371107  0.77964613  0.44945765    -0.35600
N1422       N  0.77469097  0.77348228  0.56404496    -0.56200
C1423       C  0.69255694  0.69589552  0.53199312     0.27900
C1424       C  0.71784193  0.72152885  0.60115195     0.27900
C1425       C  0.77958365  0.78140093  0.39686644     0.27900
C1426       C  0.80460889  0.80713579  0.46597156     0.27900
C1427       C  0.70333332  0.69707056  0.43531656     0.36600
C1428       C  0.73690126  0.72998229  0.38335004     0.36600
C1429       C  0.76939378  0.76385122  0.61477438     0.36600
C1430       C  0.80287568  0.79672353  0.56266691     0.36600
C1431       C  0.67300803  0.68656579  0.57450234    -0.20900
C1432       C  0.68892180  0.70277047  0.61801119    -0.20900
C1433       C  0.79840934  0.81024212  0.37959892    -0.20900
C1434       C  0.81421654  0.82646705  0.42314071    -0.20900
C1435       C  0.69759348  0.68458546  0.38506747    -0.22000
C1436       C  0.71889863  0.70536136  0.35221506    -0.22000
C1437       C  0.79439521  0.78102494  0.64563445    -0.22000
C1438       C  0.81553556  0.80190989  0.61268539    -0.22000
C1439       C  0.68505666  0.68387816  0.48005146    -0.17300
C1440       C  0.74159045  0.74137318  0.63449496    -0.17300
C1441       C  0.81641274  0.81479873  0.51790997    -0.17300
C1442       C  0.75992500  0.75750439  0.36373834    -0.17300
H1443       H  0.64965276  0.66980308  0.57426715     0.15600
H1444       H  0.68014973  0.70089836  0.65758556     0.15600
H1445       H  0.80055940  0.81874895  0.33974067     0.15600
H1446       H  0.83095332  0.84984602  0.42317365     0.15600
H1447       H  0.67961837  0.66296277  0.37312808     0.13900
H1448       H  0.72055493  0.70282325  0.30999377     0.13900
H1449       H  0.79702289  0.77901901  0.68770301     0.13900
H1450       H  0.83756034  0.81919556  0.62436239     0.13900
H1451       H  0.73944442  0.72559921  0.52699755     0.27100
H1452       H  0.77502438  0.76023396  0.47165827     0.27100
C1453       C  0.73261681  0.71475327  0.77734426    -0.12400
C1454       C  0.73580977  0.73973106  0.80508356     0.09800
C1455       C  0.73818605  0.76400268  0.77626715    -0.12400
C1456       C  0.73877180  0.76392462  0.72087967    -0.12400
C1457       C  0.73700590  0.73957479  0.69311780     0.09800
C1458       C  0.73315912  0.71465811  0.72176063    -0.12400
H1459       H  0.73091449  0.69587245  0.79876338     0.13700
H1460       H  0.74068449  0.78348266  0.79683186     0.13700
H1461       H  0.74165081  0.78331948  0.69957924     0.13700
H1462       H  0.73179310  0.69567838  0.70112804     0.13700
C1463       C  0.73909417  0.76362979  0.22239329    -0.12400
C1464       C  0.76200132  0.76315155  0.19358851     0.09800
C1465       C  0.78569928  0.76341711  0.22110976    -0.12400
C1466       C  0.78577103  0.76287315  0.27665907    -0.12400
C1467       C  0.76210343  0.76196052  0.30526715     0.09800
C1468       C  0.73915329  0.76305865  0.27772763    -0.12400
H1469       H  0.72062642  0.76338409  0.20186521     0.13700
H1470       H  0.80348740  0.76290439  0.19955375     0.13700
H1471       H  0.80363989  0.76200663  0.29728477     0.13700
H1472       H  0.72075712  0.76241982  0.29916302     0.13700
C1473       C  0.76647263  0.52997729  0.77620480    -0.12400
C1474       C  0.76447400  0.50577756  0.80471990     0.09800
C1475       C  0.76304139  0.48162430  0.77676307    -0.12400
C1476       C  0.76258821  0.48124227  0.72120735    -0.12400
C1477       C  0.76345594  0.50496070  0.69283052     0.09800
C1478       C  0.76589639  0.52953531  0.72074521    -0.12400
H1479       H  0.76739530  0.54871164  0.79701531     0.13700
H1480       H  0.76188020  0.96303162  0.79804860     0.13700
H1481       H  0.76112834  0.96238555  0.70038899     0.13700
H1482       H  0.76647403  0.54796815  0.69952517     0.13700
C1483       C  0.76001836  0.52056258  0.27687041    -0.12400
C1484       C  0.73661727  0.49753790  0.30523587     0.09800
C1485       C  0.71272013  0.97486975  0.27740646    -0.12400
C1486       C  0.71281541  0.97437363  0.22182090    -0.12400
C1487       C  0.73679369  0.49666829  0.19354865     0.09800
C1488       C  0.76005491  0.52018692  0.22155890    -0.12400
H1489       H  0.77861782  0.53847106  0.29771792     0.13700
H1490       H  0.69435273  0.95707408  0.29873408     0.13700
H1491       H  0.69448304  0.95623041  0.20089873     0.13700
H1492       H  0.77864952  0.53786479  0.20044945     0.13700
C1493       C  0.63242467  0.63443687  0.46899506    -0.12300
C1494       C  0.65642083  0.65693070  0.47213300    -0.13900
C1495       C  0.84376505  0.84305957  0.52549173    -0.12300
C1496       C  0.86694593  0.86644033  0.52790788    -0.13900
C1497       C  0.65636111  0.50136268  0.52357125    -0.12300
C1498       C  0.63328029  0.50174798  0.52616746    -0.13900
C1499       C  0.84127432  0.49814035  0.47302226    -0.12300
C1500       C  0.86458924  0.49826939  0.46952582    -0.13900
C1501       C  0.65520537  0.65824264  0.02637646    -0.12300
C1502       C  0.63146316  0.63545591  0.02962403    -0.13900
C1503       C  0.84471773  0.84215341  0.97282588    -0.12300
C1504       C  0.86842540  0.86489527  0.96939798    -0.13900
C1505       C  0.65790849  0.50331566  0.97436670    -0.12300
C1506       C  0.63501129  0.50402235  0.97112342    -0.13900
C1507       C  0.84105012  0.49550804  0.02407560    -0.12300
C1508       C  0.86418207  0.49525065  0.02726285    -0.13900
C1509       C  0.49805527  0.63332466  0.52688196    -0.12300
C1510       C  0.49878824  0.65698171  0.52449838    -0.13900
C1511       C  0.49996209  0.84430968  0.47160319    -0.12300
C1512       C  0.50026272  0.86776704  0.46945548    -0.13900
C1513       C  0.52569773  0.76621380  0.72019368    -0.12400
C1514       C  0.50142286  0.76414303  0.69188497     0.09800
C1515       C  0.97741616  0.76299485  0.71992836    -0.12400
C1516       C  0.97715714  0.76247410  0.77550280    -0.12400
C1517       C  0.50085038  0.76303961  0.80360464     0.09800
C1518       C  0.52540768  0.76565360  0.77558833    -0.12400
H1519       H  0.54432345  0.76705636  0.69925110     0.13700
H1520       H  0.95846226  0.76130155  0.69874915     0.13700
H1521       H  0.95805984  0.76050859  0.79652295     0.13700
H1522       H  0.54386389  0.76619155  0.79667444     0.13700
C1523       C  0.98306803  0.71578489  0.22017870    -0.12400
C1524       C  0.50474064  0.74041808  0.19175795     0.09800
C1525       C  0.52746222  0.76447038  0.21983682    -0.12400
C1526       C  0.52757670  0.76470055  0.27525800    -0.12400
C1527       C  0.50502414  0.74084375  0.30375383     0.09800
C1528       C  0.98322440  0.71597272  0.27577328    -0.12400
H1529       H  0.96530440  0.69706824  0.19932598     0.13700
H1530       H  0.54438544  0.78364723  0.19872757     0.13700
H1531       H  0.54458978  0.78403912  0.29602602     0.13700
H1532       H  0.96559257  0.69738743  0.29696265     0.13700
C1533       C  0.49647615  0.65508510  0.97137993    -0.12300
C1534       C  0.49580021  0.63142620  0.96960436    -0.13900
C1535       C  0.00245410  0.84486499  0.02400470    -0.12300
C1536       C  0.00336735  0.86860209  0.02629849    -0.13900
loop_ 
_geom_bond_atom_site_label_1 
_geom_bond_atom_site_label_2 
_geom_bond_distance 
_geom_bond_site_symmetry_2 
_ccdc_geom_bond_type 
N1            C6   1.355   1_655  A
N1          C773   1.357   1_655  A
N1           H33   1.037       .  S
N2            C9   1.353       .  A
N2           C10   1.353       .  A
N3            C8   1.356   1_655  A
N3          C775   1.354   1_655  A
N3           H34   1.037       .  S
N4           C11   1.353       .  A
N4           C12   1.353       .  A
C5          N769   1.357       .  A
C5           C21   1.419       .  A
C5          C781   1.386       .  A
C6           C22   1.418   1_454  A
C6           C14   1.388       .  A
C7          N771   1.354       .  A
C7           C24   1.417   1_556  A
C7          C783   1.388       .  A
C8           C23   1.417   1_455  A
C8           C16   1.386       .  A
C9           C21   1.418       .  A
C9           C17   1.388       .  A
C10          C24   1.412       .  A
C10          C18   1.386       .  A
C11          C19   1.387       .  A
C11          C22   1.414       .  A
C12          C20   1.387       .  A
C12          C23   1.417       .  A
C13          C14   1.377       .  A
C13         C773   1.386       .  A
C13         H793   1.082       .  S
C14          H26   1.082       .  S
C15          C16   1.377       .  A
C15         C775   1.388       .  A
C15         H795   1.082       .  S
C16          H28   1.082       .  S
C17          C18   1.372       .  A
C17          H29   1.082       .  S
C18          H30   1.082       .  S
C19          C20   1.373       .  A
C19          H31   1.082       .  S
C20          H32   1.083       .  S
C21        C1140   1.495       .  S
C22         C381   1.456       .  S
C23         C365   1.491   1_655  S
C24         C383   1.454       .  S
H25         C781   1.082       .  S
H27         C783   1.082       .  S
N35          C40   1.354   1_655  A
N35          C39   1.356   1_655  A
N35          H67   1.038       .  S
N36          C43   1.353   1_455  A
N36          C44   1.353   1_455  A
N37          C42   1.356   1_655  A
N37          C41   1.354   1_655  A
N37          H68   1.038       .  S
N38          C45   1.353       .  A
N38          C46   1.353       .  A
C39          C47   1.386       .  A
C39          C55   1.419       .  A
C40          C56   1.418   1_455  A
C40          C48   1.388       .  A
C41          C49   1.388       .  A
C41          C58   1.417       .  A
C42          C57   1.417   1_455  A
C42          C50   1.386       .  A
C43          C55   1.418   1_655  A
C43          C51   1.387       .  A
C44          C58   1.413   1_655  A
C44          C52   1.386       .  A
C45          C53   1.386       .  A
C45          C56   1.413       .  A
C46          C54   1.387       .  A
C46          C57   1.416       .  A
C47          C48   1.377       .  A
C47          H59   1.082       .  S
C48          H60   1.082       .  S
C49          C50   1.378       .  A
C49          H61   1.082       .  S
C50          H62   1.082       .  S
C51          C52   1.373       .  A
C51          H63   1.082       .  S
C52          H64   1.082       .  S
C53          C54   1.372       .  A
C53          H65   1.082       .  S
C54          H66   1.083       .  S
C55         C375   1.495       .  S
C56         C358   1.455       .  S
C57         C362   1.491   1_655  S
C58         C359   1.455   1_455  S
O69         C104   1.236       .  S
O69         Mg77   2.165   1_554  S
O69        Mg839   2.159       .  S
C70         H109   1.081       .  S
C70          O83   1.235       .  S
C70         O107   1.269       .  A
Mg71        O100   2.161   1_554  S
Mg71        O837   2.159   1_455  S
Mg71        O115   2.311   1_554  S
Mg71        O111   2.284       .  S
Mg71         O82   2.302       .  S
O72          C93   1.235       .  S
O72        Mg114   2.163   1_554  S
O72         Mg97   2.149       .  S
O73         C488   1.270       .  A
O73         Mg97   2.299       .  S
C74         C354   1.439       .  S
C74          O76   1.271       .  A
C74         O472   1.274   1_545  A
O75         C871   1.270       .  A
O75         Mg77   2.300       .  S
O76        Mg108   2.273       .  S
Mg77        O467   2.152   1_545  S
Mg77         O91   2.276       .  S
Mg77         O79   2.311   1_556  S
C78         C384   1.438       .  S
C78          O84   1.273       .  A
C78         O884   1.271       .  A
O79          C86   1.274   1_545  A
H80          C93   1.081       .  S
C81         H106   1.081       .  S
C81          O95   1.236       .  S
C81         O480   1.270       .  A
O82         C105   1.270       .  A
O83         Mg97   2.161   1_556  S
O83        Mg461   2.152       .  S
O84        Mg114   2.303   1_554  S
C85         C352   1.439       .  S
C85          O98   1.272       .  A
C85          O90   1.273       .  A
C86         C356   1.439       .  S
C86         O497   1.271       .  A
Mg87         O95   2.164   1_554  S
Mg87        O478   2.156       .  S
Mg87         O88   2.306   1_554  S
Mg87         O89   2.296   1_455  S
Mg87        O116   2.274       .  S
O88         C458   1.274       .  A
O89         C861   1.269       .  A
O90         Mg97   2.303   1_556  S
O91         C878   1.272       .  A
O92         C112   1.274       .  A
O92        Mg108   2.310   1_554  S
C93         O857   1.269       .  A
O94         C105   1.235       .  S
O94        Mg108   2.159   1_554  S
O94        Mg471   2.157   1_545  S
O95        Mg882   2.158   1_455  S
O96         C465   1.270   1_545  A
O96        Mg108   2.302       .  S
Mg97        O113   2.269       .  S
O98        Mg114   2.277       .  S
H99         C104   1.081       .  S
O100        C103   1.235       .  S
O100       Mg108   2.154       .  S
H101        C103   1.081       .  S
H102        C105   1.081       .  S
C103        O843   1.270   1_455  A
C104        O457   1.270   1_545  A
O107       Mg114   2.298       .  S
C110        C382   1.440       .  S
C110        O115   1.274   1_655  A
C110        O859   1.272       .  A
O111        C112   1.273       .  A
C112        C350   1.442       .  S
O113        C470   1.271       .  A
Mg114       O863   2.158       .  S
O116        C846   1.271       .  A
O117        C152   1.235       .  S
O117       Mg125   2.163       .  S
O117       Mg887   2.154   1_455  S
C118        H157   1.081       .  S
C118        O131   1.235       .  S
C118        O155   1.270       .  A
Mg119       O148   2.165       .  S
Mg119       O885   2.154       .  S
Mg119       O163   2.308       .  S
Mg119       O159   2.271       .  S
Mg119       O130   2.299       .  S
O120        C141   1.236       .  S
O120       Mg162   2.161       .  S
O120       Mg145   2.156       .  S
O121        C536   1.270   1_545  A
O121       Mg145   2.299       .  S
C122        C348   1.439       .  S
C122        O136   1.275   1_565  A
C122        O508   1.271       .  A
O123        C919   1.269       .  A
O123       Mg125   2.297   1_655  S
O124        C506   1.271       .  A
O124       Mg156   2.267       .  S
Mg125       O515   2.154       .  S
Mg125       O139   2.272       .  S
Mg125       O127   2.310       .  S
C126        C357   1.439       .  S
C126        O132   1.274   1_655  A
C126        O932   1.272       .  A
O127        C518   1.274       .  A
H128        C141   1.081       .  S
C129        H154   1.081       .  S
C129        O143   1.235       .  S
C129        O528   1.270       .  A
O130        C153   1.269       .  A
O131       Mg145   2.159       .  S
O131       Mg509   2.154   1_545  S
O132       Mg162   2.310       .  S
C133        C341   1.442       .  S
C133        O146   1.272       .  A
C133        O138   1.274       .  A
C134        C346   1.439       .  S
C134        O161   1.271       .  A
C134        O511   1.274   1_545  A
Mg135       O143   2.163       .  S
Mg135       O526   2.151   1_545  S
Mg135       O136   2.317       .  S
Mg135       O137   2.302       .  S
Mg135       O164   2.273       .  S
O137        C909   1.270       .  A
O138       Mg145   2.308       .  S
O139        C158   1.271       .  A
O140        C160   1.274       .  A
O140       Mg156   2.312       .  S
C141        O905   1.270       .  A
O142        C153   1.235       .  S
O142       Mg156   2.161       .  S
O142       Mg519   2.152       .  S
O143       Mg930   2.162       .  S
O144        C513   1.270       .  A
O144       Mg156   2.303       .  S
Mg145       O161   2.271       .  S
O146       Mg162   2.283       .  S
H147        C152   1.081       .  S
O148        C151   1.235       .  S
O148       Mg156   2.150       .  S
H149        C151   1.081       .  S
H150        C153   1.081       .  S
C151        O891   1.269       .  A
C152        O505   1.270       .  A
O155       Mg162   2.301       .  S
C158        C360   1.439       .  S
C158        O931   1.274   1_455  A
O159        C160   1.271       .  A
C160        C344   1.440       .  S
Mg162       O911   2.162   1_455  S
O163        C926   1.274       .  A
O164        C894   1.271       .  A
N165        C170   1.354       .  A
N165        C169   1.354       .  A
N165        H197   1.034   1_565  S
N166        C173   1.355       .  A
N166        C174   1.353   1_565  A
N167        C172   1.356       .  A
N167        C171   1.355       .  A
N167        H198   1.037       .  S
N168        C175   1.354   1_565  A
N168        C176   1.355   1_565  A
C169        C177   1.388       .  A
C169        C185   1.421       .  A
C170        C186   1.417       .  A
C170        C178   1.388       .  A
C171        C179   1.387   1_545  A
C171        C188   1.416       .  A
C172        C187   1.420       .  A
C172        C180   1.388   1_545  A
C173        C185   1.418       .  A
C173        C181   1.386   1_565  A
C174        C188   1.417   1_554  A
C174        C182   1.387       .  A
C175        C183   1.388       .  A
C175        C186   1.419   1_546  A
C176        C184   1.385       .  A
C176        C187   1.417       .  A
C177        C178   1.375       .  A
C177        H189   1.083       .  S
C178        H190   1.082       .  S
C179        C180   1.374       .  A
C179        H191   1.082       .  S
C180        H192   1.082       .  S
C181        C182   1.373       .  A
C181        H193   1.082       .  S
C182        H194   1.082       .  S
C183        C184   1.374       .  A
C183        H195   1.082       .  S
C184        H196   1.082       .  S
C185        C335   1.491       .  S
C186        C355   1.455       .  S
C187        C322   1.494       .  S
C188        C353   1.455       .  S
N199        C204   1.353       .  A
N199        C203   1.353       .  A
N199        H231   1.039   1_565  S
N200        C207   1.353   1_565  A
N200        C208   1.351   1_565  A
N201        C206   1.355   1_545  A
N201        C205   1.354   1_545  A
N201        H232   1.039       .  S
N202        C209   1.353   1_565  A
N202        C210   1.353   1_565  A
C203        C211   1.388       .  A
C203        C219   1.416       .  A
C204        C220   1.413       .  A
C204        C212   1.387       .  A
C205        C213   1.387       .  A
C205        C222   1.415   1_565  A
C206        C221   1.418   1_565  A
C206        C214   1.387       .  A
C207        C219   1.414   1_545  A
C207        C215   1.385       .  A
C208        C222   1.415       .  A
C208        C216   1.388       .  A
C209        C217   1.387       .  A
C209        C220   1.415   1_545  A
C210        C218   1.385       .  A
C210        C221   1.415       .  A
C211        C212   1.376       .  A
C211        H223   1.083       .  S
C212        H224   1.082       .  S
C213        C214   1.376       .  A
C213        H225   1.082       .  S
C214        H226   1.083       .  S
C215        C216   1.376       .  A
C215        H227   1.082       .  S
C216        H228   1.082       .  S
C217        C218   1.375       .  A
C217        H229   1.082       .  S
C218        H230   1.082       .  S
C219        C332   1.488       .  S
C220        C347   1.454       .  S
C221        C325   1.491       .  S
C222        C345   1.454       .  S
N233        C238   1.355       .  A
N233        C237   1.354       .  A
N233        H265   1.037       .  S
N234        C241   1.354       .  A
N234        C242   1.353       .  A
N235        C240   1.355       .  A
N235        C239   1.355       .  A
N235        H266   1.037       .  S
N236        C243   1.354       .  A
N236        C244   1.355       .  A
C237        C245   1.388       .  A
C237        C253   1.420       .  A
C238        C254   1.416       .  A
C238        C246   1.387       .  A
C239        C247   1.387       .  A
C239        C256   1.415       .  A
C240        C255   1.420       .  A
C240        C248   1.388       .  A
C241        C253   1.416       .  A
C241        C249   1.386       .  A
C242        C256   1.416   1_554  A
C242        C250   1.387       .  A
C243        C251   1.387       .  A
C243        C254   1.418   1_556  A
C244        C252   1.386       .  A
C244        C255   1.418       .  A
C245        C246   1.375       .  A
C245        H257   1.083       .  S
C246        H258   1.082       .  S
C247        C248   1.374       .  A
C247        H259   1.082       .  S
C248        H260   1.082       .  S
C249        C250   1.374       .  A
C249        H261   1.082       .  S
C250        H262   1.082       .  S
C251        C252   1.375       .  A
C251        H263   1.082       .  S
C252        H264   1.082       .  S
C253        C312   1.491       .  S
C254        C349   1.458       .  S
C255        C302   1.495       .  S
C256        C351   1.456       .  S
N267        C272   1.356       .  A
N267        C271   1.355       .  A
N267        H299   1.038       .  S
N268        C275   1.353       .  A
N268        C276   1.353       .  A
N269        C274   1.354       .  A
N269        C273   1.355       .  A
N269        H300   1.039       .  S
N270        C277   1.353       .  A
N270        C278   1.353       .  A
C271        C279   1.388       .  A
C271        C287   1.419       .  A
C272        C288   1.420       .  A
C272        C280   1.386       .  A
C273        C281   1.387       .  A
C273        C290   1.417       .  A
C274        C289   1.417       .  A
C274        C282   1.388       .  A
C275        C287   1.413       .  A
C275        C283   1.386       .  A
C276        C290   1.417       .  A
C276        C284   1.387       .  A
C277        C285   1.388       .  A
C277        C288   1.418       .  A
C278        C286   1.386       .  A
C278        C289   1.412       .  A
C279        C280   1.377       .  A
C279        H291   1.082       .  S
C280        H292   1.082       .  S
C281        C282   1.377       .  A
C281        H293   1.082       .  S
C282        H294   1.082       .  S
C283        C284   1.372       .  A
C283        H295   1.082       .  S
C284        H296   1.082       .  S
C285        C286   1.373       .  A
C285        H297   1.082       .  S
C286        H298   1.082       .  S
C287        C342   1.457       .  S
C288        C305   1.495       .  S
C289        C343   1.456       .  S
C290        C315   1.490       .  S
C301        C302   1.406       .  A
C301        C306   1.404       .  A
C301        H307   1.083       .  S
C302        C303   1.405       .  A
C303        C304   1.399       .  A
C303        H308   1.083       .  S
C304        C305   1.405       .  A
C304        H309   1.083       .  S
C305        C306   1.405       .  A
C306        H310   1.083       .  S
C311        C312   1.404       .  A
C311        C316   1.397       .  A
C311        H317   1.083       .  S
C312        C313   1.405       .  A
C313        C314   1.403       .  A
C313        H318   1.083       .  S
C314        C315   1.405       .  A
C314        H319   1.083       .  S
C315        C316   1.404       .  A
C316        H320   1.083       .  S
C321        C322   1.405       .  A
C321        C326   1.400       .  A
C321        H327   1.083       .  S
C322        C323   1.405   1_545  A
C323        C324   1.403       .  A
C323        H712   1.083       .  S
C324        C325   1.405   1_565  A
C324        H713   1.083       .  S
C325        C326   1.404       .  A
C326        H330   1.083       .  S
H328        C707   1.083       .  S
H329        C708   1.083       .  S
C331        C332   1.402   1_545  A
C331        C336   1.396       .  A
C331        H337   1.083       .  S
C332        C717   1.405       .  A
C333        C334   1.403       .  A
C333        C716   1.405       .  A
C333        H338   1.083       .  S
C334        C719   1.406       .  A
C334        H339   1.083       .  S
C335        C336   1.403   1_565  A
C335        C718   1.406       .  A
C336        H340   1.083       .  S
C341        C342   1.210       .  T
C343        C344   1.209       .  T
C345        C346   1.209       .  T
C347        C348   1.209       .  T
C349        C350   1.211       .  T
C351        C352   1.209       .  T
C353        C354   1.209       .  T
C355        C356   1.209       .  T
C357        C358   1.209       .  T
C359        C360   1.209   1_655  T
C361        C362   1.404       .  A
C361        C366   1.399       .  A
C361        H367   1.083       .  S
C362       C1131   1.405   1_455  A
C363        C364   1.403       .  A
C363       C1130   1.405       .  A
C363        H368   1.083       .  S
C364       C1133   1.405       .  A
C364        H369   1.083       .  S
C365        C366   1.403       .  A
C365       C1132   1.405   1_455  A
C366        H370   1.083       .  S
C371        C376   1.404       .  A
C371       C1140   1.406       .  A
C371        H377   1.083       .  S
C372        C373   1.405       .  A
C372       C1139   1.406   1_455  A
C372        C789   1.496       .  S
C373        C374   1.399       .  A
C373        H378   1.083       .  S
C374        C375   1.405       .  A
C374        H379   1.083       .  S
C375       C1144   1.406   1_455  A
C376       C1143   1.406       .  A
C376        H380   1.083       .  S
C381        C382   1.210       .  T
C383        C384   1.208       .  T
N385        C390   1.355   1_655  A
N385       C1157   1.357   1_655  A
N385        H417   1.037       .  S
N386        C393   1.353       .  A
N386        C394   1.353       .  A
N387        C392   1.356   1_655  A
N387       C1159   1.354   1_655  A
N387        H418   1.037       .  S
N388        C395   1.353       .  A
N388        C396   1.353       .  A
C389       N1153   1.357       .  A
C389       C1165   1.386       .  A
C389        C405   1.419       .  A
C390        C406   1.418   1_454  A
C390        C398   1.388       .  A
C391       N1155   1.354       .  A
C391       C1167   1.388       .  A
C391        C408   1.417   1_556  A
C392        C407   1.417   1_455  A
C392        C400   1.386       .  A
C393        C405   1.417       .  A
C393        C401   1.388       .  A
C394        C408   1.412       .  A
C394        C402   1.386       .  A
C395        C403   1.387       .  A
C395        C406   1.414       .  A
C396        C404   1.387       .  A
C396        C407   1.417       .  A
C397       C1157   1.386       .  A
C397        C398   1.377       .  A
C397       H1177   1.082       .  S
C398        H410   1.082       .  S
C399       C1159   1.388       .  A
C399        C400   1.377       .  A
C399       H1179   1.082       .  S
C400        H412   1.082       .  S
C401        C402   1.372       .  A
C401        H413   1.082       .  S
C402        H414   1.082       .  S
C403        C404   1.373       .  A
C403        H415   1.082       .  S
C404        H416   1.083       .  S
C405       C1524   1.496       .  S
C406        C765   1.456       .  S
C407        C749   1.491   1_655  S
C408        C767   1.454       .  S
H409       C1165   1.082       .  S
H411       C1167   1.082       .  S
N419        C424   1.354   1_655  A
N419        C423   1.356   1_655  A
N419        H451   1.038       .  S
N420        C427   1.353   1_455  A
N420        C428   1.353   1_455  A
N421        C426   1.356   1_655  A
N421        C425   1.354   1_655  A
N421        H452   1.038       .  S
N422        C429   1.353       .  A
N422        C430   1.353       .  A
C423        C431   1.386       .  A
C423        C439   1.419       .  A
C424        C440   1.418   1_455  A
C424        C432   1.388       .  A
C425        C433   1.388       .  A
C425        C442   1.417       .  A
C426        C441   1.417   1_455  A
C426        C434   1.386       .  A
C427        C439   1.418   1_655  A
C427        C435   1.387       .  A
C428        C442   1.413   1_655  A
C428        C436   1.386       .  A
C429        C437   1.387       .  A
C429        C440   1.413       .  A
C430        C438   1.387       .  A
C430        C441   1.416       .  A
C431        C432   1.377       .  A
C431        H443   1.082       .  S
C432        H444   1.082       .  S
C433        C434   1.378       .  A
C433        H445   1.082       .  S
C434        H446   1.082       .  S
C435        C436   1.373       .  A
C435        H447   1.082       .  S
C436        H448   1.082       .  S
C437        C438   1.372       .  A
C437        H449   1.082       .  S
C438        H450   1.083       .  S
C439        C759   1.495       .  S
C440        C742   1.455       .  S
C441        C746   1.491   1_655  S
C442        C743   1.455       .  S
O453        C488   1.236       .  S
O453      Mg1223   2.159       .  S
O453       Mg461   2.166   1_554  S
C454        H493   1.081       .  S
C454        O467   1.235       .  S
C454        O491   1.269       .  A
Mg455      O1221   2.159   1_455  S
Mg455       O484   2.161   1_554  S
Mg455       O499   2.311   1_554  S
Mg455       O495   2.283       .  S
Mg455       O466   2.302       .  S
O456        C477   1.235       .  S
O456       Mg498   2.163   1_554  S
O456       Mg481   2.149       .  S
O457       Mg481   2.299       .  S
C458        C738   1.439       .  S
C458        O460   1.271       .  A
O459       C1255   1.270       .  A
O459       Mg461   2.300       .  S
O460       Mg492   2.274       .  S
Mg461       O475   2.276       .  S
Mg461       O463   2.311   1_556  S
C462        C768   1.438       .  S
C462       O1268   1.271       .  A
C462        O468   1.273       .  A
O463        C470   1.274       .  A
H464        C477   1.081       .  S
C465        H490   1.081       .  S
C465        O479   1.236       .  S
O466        C489   1.270       .  A
O467       Mg481   2.162   1_556  S
O468       Mg498   2.303   1_554  S
C469        C736   1.439       .  S
C469        O482   1.272       .  A
C469        O474   1.273       .  A
C470        C740   1.439       .  S
Mg471       O479   2.165   1_554  S
Mg471       O472   2.306   1_554  S
Mg471       O473   2.297   1_455  S
Mg471       O500   2.274       .  S
O473       C1245   1.269       .  A
O474       Mg481   2.303   1_556  S
O475       C1262   1.272       .  A
O476        C496   1.274       .  A
O476       Mg492   2.311   1_554  S
C477       O1241   1.269       .  A
O478        C489   1.235       .  S
O478       Mg492   2.158   1_554  S
O479      Mg1266   2.158   1_455  S
O480       Mg492   2.302       .  S
Mg481       O497   2.268       .  S
O482       Mg498   2.277       .  S
H483        C488   1.081       .  S
O484        C487   1.235       .  S
O484       Mg492   2.154       .  S
H485        C487   1.081       .  S
H486        C489   1.081       .  S
C487       O1227   1.270   1_455  A
O491       Mg498   2.298       .  S
C494        C766   1.441       .  S
C494       O1243   1.272       .  A
C494        O499   1.274   1_655  A
O495        C496   1.273       .  A
C496        C734   1.442       .  S
Mg498      O1247   2.158       .  S
O500       C1230   1.271       .  A
O501        C536   1.235       .  S
O501      Mg1271   2.154   1_455  S
O501       Mg509   2.163       .  S
C502        H541   1.081       .  S
C502        O515   1.235       .  S
C502        O539   1.270       .  A
Mg503      O1269   2.154       .  S
Mg503       O532   2.165       .  S
Mg503       O547   2.308       .  S
Mg503       O543   2.271       .  S
Mg503       O514   2.299       .  S
O504        C525   1.236       .  S
O504       Mg546   2.161       .  S
O504       Mg529   2.157       .  S
O505       Mg529   2.299       .  S
C506        C732   1.440       .  S
C506        O520   1.275       .  A
O507       C1303   1.269       .  A
O507       Mg509   2.297   1_655  S
O508       Mg540   2.267       .  S
Mg509       O523   2.272       .  S
Mg509       O511   2.310       .  S
C510        C741   1.439       .  S
C510       O1316   1.271       .  A
C510        O516   1.274   1_655  A
H512        C525   1.081       .  S
C513        H538   1.081       .  S
C513        O527   1.235       .  S
O514        C537   1.269       .  A
O515       Mg529   2.159       .  S
O516       Mg546   2.309       .  S
C517        C725   1.442       .  S
C517        O530   1.272       .  A
C517        O522   1.274       .  A
C518        C730   1.439       .  S
C518        O545   1.271       .  A
Mg519       O527   2.164       .  S
Mg519       O520   2.317       .  S
Mg519       O521   2.302       .  S
Mg519       O548   2.273       .  S
O521       C1293   1.270       .  A
O522       Mg529   2.308       .  S
O523        C542   1.271       .  A
O524        C544   1.274       .  A
O524       Mg540   2.311       .  S
C525       O1289   1.270       .  A
O526        C537   1.235       .  S
O526       Mg540   2.162       .  S
O527      Mg1314   2.162       .  S
O528       Mg540   2.303   1_545  S
Mg529       O545   2.272       .  S
O530       Mg546   2.283       .  S
H531        C536   1.081       .  S
O532        C535   1.235       .  S
O532       Mg540   2.150       .  S
H533        C535   1.081       .  S
H534        C537   1.081       .  S
C535       O1275   1.269       .  A
O539       Mg546   2.301       .  S
C542        C744   1.439       .  S
C542       O1315   1.274   1_455  A
O543        C544   1.271       .  A
C544        C728   1.440       .  S
Mg546      O1295   2.162   1_455  S
O547       C1310   1.274       .  A
O548       C1278   1.272       .  A
N549        C554   1.354       .  A
N549        C553   1.354       .  A
N549        H581   1.034       .  S
N550        C557   1.354       .  A
N550        C558   1.353       .  A
N551        C556   1.356       .  A
N551        C555   1.355       .  A
N551        H582   1.037       .  S
N552        C559   1.354       .  A
N552        C560   1.355       .  A
C553        C561   1.388       .  A
C553        C569   1.420       .  A
C554        C570   1.417       .  A
C554        C562   1.388       .  A
C555        C563   1.387       .  A
C555        C572   1.416       .  A
C556        C571   1.420       .  A
C556        C564   1.388       .  A
C557        C569   1.418       .  A
C557        C565   1.386       .  A
C558        C572   1.416   1_554  A
C558        C566   1.387       .  A
C559        C567   1.388       .  A
C559        C570   1.419   1_556  A
C560        C568   1.385       .  A
C560        C571   1.417       .  A
C561        C562   1.375       .  A
C561        H573   1.083       .  S
C562        H574   1.082       .  S
C563        C564   1.374       .  A
C563        H575   1.082       .  S
C564        H576   1.082       .  S
C565        C566   1.373       .  A
C565        H577   1.082       .  S
C566        H578   1.082       .  S
C567        C568   1.374       .  A
C567        H579   1.082       .  S
C568        H580   1.082       .  S
C569        C719   1.491       .  S
C570        C739   1.456       .  S
C571        C706   1.494       .  S
C572        C737   1.455       .  S
N583        C588   1.353       .  A
N583        C587   1.353       .  A
N583        H615   1.039       .  S
N584        C591   1.353       .  A
N584        C592   1.351       .  A
N585        C590   1.355       .  A
N585        C589   1.355       .  A
N585        H616   1.039       .  S
N586        C593   1.353       .  A
N586        C594   1.353       .  A
C587        C595   1.388       .  A
C587        C603   1.416       .  A
C588        C604   1.413       .  A
C588        C596   1.387       .  A
C589        C597   1.387       .  A
C589        C606   1.415       .  A
C590        C605   1.418       .  A
C590        C598   1.387       .  A
C591        C603   1.414       .  A
C591        C599   1.385       .  A
C592        C606   1.415       .  A
C592        C600   1.388       .  A
C593        C601   1.387       .  A
C593        C604   1.415       .  A
C594        C602   1.385       .  A
C594        C605   1.415       .  A
C595        C596   1.376       .  A
C595        H607   1.083       .  S
C596        H608   1.082       .  S
C597        C598   1.377       .  A
C597        H609   1.082       .  S
C598        H610   1.083       .  S
C599        C600   1.376       .  A
C599        H611   1.082       .  S
C600        H612   1.082       .  S
C601        C602   1.376       .  A
C601        H613   1.082       .  S
C602        H614   1.082       .  S
C603        C716   1.488       .  S
C604        C731   1.455       .  S
C605        C709   1.491       .  S
C606        C729   1.455       .  S
N617        C622   1.355       .  A
N617        C621   1.355       .  A
N617        H649   1.037       .  S
N618        C625   1.354       .  A
N618        C626   1.353       .  A
N619        C624   1.355       .  A
N619        C623   1.355       .  A
N619        H650   1.037       .  S
N620        C627   1.354       .  A
N620        C628   1.355       .  A
C621        C629   1.388       .  A
C621        C637   1.420       .  A
C622        C638   1.416       .  A
C622        C630   1.387       .  A
C623        C631   1.387       .  A
C623        C640   1.416       .  A
C624        C639   1.420       .  A
C624        C632   1.388       .  A
C625        C637   1.416       .  A
C625        C633   1.386       .  A
C626        C640   1.416   1_554  A
C626        C634   1.388       .  A
C627        C635   1.387       .  A
C627        C638   1.418   1_556  A
C628        C636   1.386       .  A
C628        C639   1.418       .  A
C629        C630   1.375       .  A
C629        H641   1.083       .  S
C630        H642   1.082       .  S
C631        C632   1.374       .  A
C631        H643   1.082       .  S
C632        H644   1.082       .  S
C633        C634   1.374       .  A
C633        H645   1.082       .  S
C634        H646   1.082       .  S
C635        C636   1.374       .  A
C635        H647   1.082       .  S
C636        H648   1.082       .  S
C637        C696   1.492       .  S
C638        C733   1.458       .  S
C639        C686   1.494       .  S
C640        C735   1.456       .  S
N651        C656   1.356       .  A
N651        C655   1.355       .  A
N651        H683   1.038       .  S
N652        C659   1.353       .  A
N652        C660   1.353       .  A
N653        C658   1.355       .  A
N653        C657   1.355       .  A
N653        H684   1.038       .  S
N654        C661   1.353       .  A
N654        C662   1.353       .  A
C655        C663   1.388       .  A
C655        C671   1.419       .  A
C656        C672   1.419       .  A
C656        C664   1.386       .  A
C657        C665   1.387       .  A
C657        C674   1.417       .  A
C658        C673   1.417       .  A
C658        C666   1.388       .  A
C659        C671   1.414       .  A
C659        C667   1.386       .  A
C660        C674   1.417       .  A
C660        C668   1.387       .  A
C661        C669   1.388       .  A
C661        C672   1.418       .  A
C662        C670   1.386       .  A
C662        C673   1.412       .  A
C663        C664   1.377       .  A
C663        H675   1.082       .  S
C664        H676   1.082       .  S
C665        C666   1.377       .  A
C665        H677   1.082       .  S
C666        H678   1.082       .  S
C667        C668   1.372       .  A
C667        H679   1.082       .  S
C668        H680   1.082       .  S
C669        C670   1.373       .  A
C669        H681   1.082       .  S
C670        H682   1.082       .  S
C671        C726   1.458       .  S
C672        C689   1.494       .  S
C673        C727   1.456       .  S
C674        C699   1.491       .  S
C685        C686   1.406       .  A
C685        C690   1.403       .  A
C685        H691   1.083       .  S
C686        C687   1.405       .  A
C687        C688   1.399       .  A
C687        H692   1.083       .  S
C688        C689   1.405       .  A
C688        H693   1.083       .  S
C689        C690   1.405       .  A
C690        H694   1.083       .  S
C695        C696   1.404       .  A
C695        C700   1.397       .  A
C695        H701   1.083       .  S
C696        C697   1.406       .  A
C697        C698   1.403       .  A
C697        H702   1.083       .  S
C698        C699   1.405       .  A
C698        H703   1.083       .  S
C699        C700   1.404       .  A
C700        H704   1.083       .  S
C705        C706   1.405       .  A
C705        C710   1.400       .  A
C705        H711   1.083       .  S
C706        C707   1.405       .  A
C707        C708   1.403       .  A
C708        C709   1.405       .  A
C709        C710   1.404       .  A
C710        H714   1.083       .  S
C715        C716   1.403       .  A
C715        C720   1.396       .  A
C715        H721   1.083       .  S
C717        C718   1.403       .  A
C717        H722   1.083       .  S
C718        H723   1.083       .  S
C719        C720   1.404       .  A
C720        H724   1.083       .  S
C725        C726   1.211       .  T
C727        C728   1.209       .  T
C729        C730   1.209       .  T
C731        C732   1.209       .  T
C733        C734   1.211       .  T
C735        C736   1.209       .  T
C737        C738   1.209       .  T
C739        C740   1.209       .  T
C741        C742   1.209       .  T
C743        C744   1.209       .  T
C745        C746   1.404       .  A
C745        C750   1.399       .  A
C745        H751   1.083       .  S
C746       C1515   1.405   1_455  A
C747       C1514   1.405       .  A
C747        C748   1.403       .  A
C747        H752   1.083       .  S
C748       C1517   1.405       .  A
C748        H753   1.083       .  S
C749       C1516   1.405   1_455  A
C749        C750   1.403       .  A
C750        H754   1.083       .  S
C755       C1524   1.406       .  A
C755        C760   1.404       .  A
C755        H761   1.083       .  S
C756       C1523   1.406   1_455  A
C756        C757   1.405       .  A
C756       C1173   1.495       .  S
C757        C758   1.399       .  A
C757        H762   1.083       .  S
C758        C759   1.405       .  A
C758        H763   1.083       .  S
C759       C1528   1.406   1_455  A
C760       C1527   1.406       .  A
C760        H764   1.083       .  S
C765        C766   1.210       .  T
C767        C768   1.208       .  T
N769        C774   1.355       .  A
N769        H801   1.037       .  S
N770        C777   1.353   1_455  A
N770        C778   1.353   1_455  A
N771        C776   1.356       .  A
N771        H802   1.037       .  S
N772        C779   1.353       .  A
N772        C780   1.353       .  A
C773        C789   1.419       .  A
C774        C790   1.418   1_554  A
C774        C782   1.388       .  A
C775        C792   1.417   1_556  A
C776        C791   1.417       .  A
C776        C784   1.386       .  A
C777        C789   1.417   1_655  A
C777        C785   1.388       .  A
C778        C792   1.412   1_655  A
C778        C786   1.386       .  A
C779        C787   1.387       .  A
C779        C790   1.414       .  A
C780        C788   1.387       .  A
C780        C791   1.417       .  A
C781        C782   1.377       .  A
C782        H794   1.082       .  S
C783        C784   1.377       .  A
C784        H796   1.082       .  S
C785        C786   1.372       .  A
C785        H797   1.082       .  S
C786        H798   1.082       .  S
C787        C788   1.373       .  A
C787        H799   1.082       .  S
C788        H800   1.083       .  S
C790       C1149   1.456       .  S
C791       C1133   1.491       .  S
C792       C1151   1.454       .  S
N803        C808   1.354       .  A
N803        C807   1.356       .  A
N803        H835   1.038       .  S
N804        C811   1.353       .  A
N804        C812   1.353       .  A
N805        C810   1.356       .  A
N805        C809   1.354       .  A
N805        H836   1.038       .  S
N806        C813   1.353       .  A
N806        C814   1.353       .  A
C807        C815   1.386       .  A
C807        C823   1.419       .  A
C808        C824   1.418       .  A
C808        C816   1.388       .  A
C809        C817   1.388       .  A
C809        C826   1.417       .  A
C810        C825   1.417       .  A
C810        C818   1.386       .  A
C811        C823   1.418       .  A
C811        C819   1.387       .  A
C812        C826   1.413       .  A
C812        C820   1.386       .  A
C813        C821   1.387       .  A
C813        C824   1.413       .  A
C814        C822   1.387       .  A
C814        C825   1.416       .  A
C815        C816   1.377       .  A
C815        H827   1.082       .  S
C816        H828   1.082       .  S
C817        C818   1.378       .  A
C817        H829   1.082       .  S
C818        H830   1.082       .  S
C819        C820   1.373       .  A
C819        H831   1.082       .  S
C820        H832   1.082       .  S
C821        C822   1.372       .  A
C821        H833   1.082       .  S
C822        H834   1.083       .  S
C823       C1143   1.495       .  S
C824       C1126   1.455       .  S
C825       C1130   1.490       .  S
C826       C1127   1.455       .  S
O837        C872   1.236       .  S
O837       Mg845   2.166   1_554  S
C838        H877   1.081       .  S
C838        O851   1.235       .  S
C838        O875   1.269       .  A
Mg839       O868   2.161   1_554  S
Mg839       O883   2.311   1_554  S
Mg839       O879   2.283       .  S
Mg839       O850   2.302       .  S
O840        C861   1.235       .  S
O840       Mg882   2.163   1_554  S
O840       Mg865   2.149       .  S
O841       C1256   1.270       .  A
O841       Mg865   2.299       .  S
C842       C1122   1.439       .  S
C842        O844   1.271       .  A
C842       O1240   1.274   1_545  A
O843       Mg845   2.299       .  S
O844       Mg876   2.274       .  S
Mg845      O1235   2.152   1_545  S
Mg845       O859   2.276       .  S
Mg845       O847   2.311   1_556  S
C846       C1152   1.438       .  S
C846        O852   1.273   1_455  A
O847        C854   1.275   1_545  A
H848        C861   1.081       .  S
C849        H874   1.081       .  S
C849        O863   1.236       .  S
C849       O1248   1.270       .  A
O850        C873   1.270       .  A
O851      Mg1229   2.152       .  S
O851       Mg865   2.161   1_556  S
O852       Mg882   2.303   1_554  S
C853       C1120   1.439       .  S
C853        O866   1.272       .  A
C853        O858   1.273       .  A
C854       C1124   1.439       .  S
C854       O1265   1.271       .  A
Mg855      O1246   2.157       .  S
Mg855       O863   2.165   1_554  S
Mg855       O856   2.306   1_554  S
Mg855       O857   2.297       .  S
Mg855       O884   2.274       .  S
O856       C1226   1.274       .  A
O858       Mg865   2.303   1_556  S
O860        C880   1.274       .  A
O860       Mg876   2.311   1_554  S
O862        C873   1.235       .  S
O862      Mg1239   2.156   1_545  S
O862       Mg876   2.158   1_554  S
O864       C1233   1.270   1_545  A
O864       Mg876   2.302       .  S
Mg865       O881   2.268       .  S
O866       Mg882   2.277       .  S
H867        C872   1.081       .  S
O868        C871   1.235       .  S
O868       Mg876   2.154       .  S
H869        C871   1.081       .  S
H870        C873   1.081       .  S
C872       O1225   1.270   1_545  A
O875       Mg882   2.298       .  S
C878       C1150   1.441       .  S
C878        O883   1.274       .  A
O879        C880   1.273       .  A
C880       C1118   1.442       .  S
O881       C1238   1.271       .  A
O885        C920   1.235       .  S
O885       Mg893   2.163       .  S
C886        H925   1.081       .  S
C886        O899   1.235       .  S
C886        O923   1.270       .  A
Mg887       O916   2.165       .  S
Mg887       O931   2.308       .  S
Mg887       O927   2.271       .  S
Mg887       O898   2.299       .  S
O888        C909   1.236       .  S
O888       Mg930   2.161       .  S
O888       Mg913   2.157       .  S
O889       C1304   1.270   1_545  A
O889       Mg913   2.299       .  S
C890       C1116   1.440       .  S
C890       O1276   1.271       .  A
C890        O904   1.275   1_565  A
O891       Mg893   2.297       .  S
O892       C1274   1.271       .  A
O892       Mg924   2.267       .  S
Mg893      O1283   2.154       .  S
Mg893       O907   2.272       .  S
Mg893       O895   2.310       .  S
C894       C1125   1.439       .  S
C894        O900   1.274       .  A
O895       C1286   1.274       .  A
H896        C909   1.081       .  S
C897        H922   1.081       .  S
C897        O911   1.235       .  S
C897       O1296   1.270       .  A
O898        C921   1.269       .  A
O899      Mg1277   2.154   1_545  S
O899       Mg913   2.159       .  S
O900       Mg930   2.309       .  S
C901       C1109   1.442       .  S
C901        O914   1.272       .  A
C901        O906   1.274       .  A
C902       C1114   1.440       .  S
C902       O1279   1.274   1_545  A
C902        O929   1.271       .  A
Mg903      O1294   2.152   1_545  S
Mg903       O911   2.164       .  S
Mg903       O904   2.317       .  S
Mg903       O905   2.302   1_655  S
Mg903       O932   2.273       .  S
O906       Mg913   2.308       .  S
O907        C926   1.271       .  A
O908        C928   1.274       .  A
O908       Mg924   2.311       .  S
O910        C921   1.235       .  S
O910      Mg1287   2.151       .  S
O910       Mg924   2.162       .  S
O912       C1281   1.270       .  A
O912       Mg924   2.303       .  S
Mg913       O929   2.273       .  S
O914       Mg930   2.284       .  S
H915        C920   1.081       .  S
O916        C919   1.235       .  S
O916       Mg924   2.150       .  S
H917        C919   1.081       .  S
H918        C921   1.081       .  S
C920       O1273   1.270       .  A
O923       Mg930   2.301       .  S
C926       C1128   1.439       .  S
O927        C928   1.271       .  A
C928       C1112   1.440       .  S
N933        C938   1.354       .  A
N933        C937   1.354       .  A
N933        H965   1.035   1_565  S
N934        C941   1.354       .  A
N934        C942   1.353   1_565  A
N935        C940   1.356       .  A
N935        C939   1.355   1_545  A
N935        H966   1.037       .  S
N936        C943   1.354   1_565  A
N936        C944   1.354   1_565  A
C937        C945   1.388       .  A
C937        C953   1.420       .  A
C938        C954   1.416       .  A
C938        C946   1.388       .  A
C939        C947   1.387       .  A
C939        C956   1.415   1_565  A
C940        C955   1.420       .  A
C940        C948   1.388   1_545  A
C941        C953   1.418       .  A
C941        C949   1.386   1_565  A
C942        C956   1.416   1_554  A
C942        C950   1.387       .  A
C943        C951   1.388       .  A
C943        C954   1.418   1_546  A
C944        C952   1.385       .  A
C944        C955   1.417       .  A
C945        C946   1.375       .  A
C945        H957   1.083       .  S
C946        H958   1.082       .  S
C947        C948   1.374       .  A
C947        H959   1.082       .  S
C948        H960   1.082       .  S
C949        C950   1.374       .  A
C949        H961   1.082       .  S
C950        H962   1.082       .  S
C951        C952   1.374       .  A
C951        H963   1.082       .  S
C952        H964   1.082       .  S
C953       C1103   1.492       .  S
C954       C1123   1.456       .  S
C955       C1090   1.494       .  S
C956       C1121   1.455       .  S
N967        C972   1.353       .  A
N967        C971   1.353       .  A
N967        H999   1.039   1_565  S
N968        C975   1.353   1_565  A
N968        C976   1.351   1_565  A
N969        C974   1.355   1_545  A
N969        C973   1.355   1_545  A
N969       H1000   1.039       .  S
N970        C977   1.353   1_565  A
N970        C978   1.353   1_565  A
C971        C979   1.388       .  A
C971        C987   1.416       .  A
C972        C988   1.413       .  A
C972        C980   1.387       .  A
C973        C981   1.387       .  A
C973        C990   1.415   1_565  A
C974        C989   1.418   1_565  A
C974        C982   1.387       .  A
C975        C987   1.414   1_545  A
C975        C983   1.385       .  A
C976        C990   1.415       .  A
C976        C984   1.388       .  A
C977        C985   1.387       .  A
C977        C988   1.415   1_545  A
C978        C986   1.385       .  A
C978        C989   1.415       .  A
C979        C980   1.376       .  A
C979        H991   1.083       .  S
C980        H992   1.082       .  S
C981        C982   1.377       .  A
C981        H993   1.082       .  S
C982        H994   1.083       .  S
C983        C984   1.376       .  A
C983        H995   1.082       .  S
C984        H996   1.082       .  S
C985        C986   1.376       .  A
C985        H997   1.082       .  S
C986        H998   1.082       .  S
C987       C1100   1.488       .  S
C988       C1115   1.455       .  S
C989       C1093   1.491       .  S
C990       C1113   1.455       .  S
N1001      C1006   1.355       .  A
N1001      C1005   1.355       .  A
N1001      H1033   1.037       .  S
N1002      C1009   1.354       .  A
N1002      C1010   1.353       .  A
N1003      C1008   1.355       .  A
N1003      C1007   1.355       .  A
N1003      H1034   1.037       .  S
N1004      C1011   1.354       .  A
N1004      C1012   1.355       .  A
C1005      C1013   1.388       .  A
C1005      C1021   1.420       .  A
C1006      C1022   1.416       .  A
C1006      C1014   1.387       .  A
C1007      C1015   1.387       .  A
C1007      C1024   1.415       .  A
C1008      C1023   1.420       .  A
C1008      C1016   1.388       .  A
C1009      C1021   1.416       .  A
C1009      C1017   1.386       .  A
C1010      C1024   1.416   1_554  A
C1010      C1018   1.388       .  A
C1011      C1019   1.387       .  A
C1011      C1022   1.418   1_556  A
C1012      C1020   1.386       .  A
C1012      C1023   1.418       .  A
C1013      C1014   1.375       .  A
C1013      H1025   1.083       .  S
C1014      H1026   1.082       .  S
C1015      C1016   1.374       .  A
C1015      H1027   1.082       .  S
C1016      H1028   1.082       .  S
C1017      C1018   1.374       .  A
C1017      H1029   1.082       .  S
C1018      H1030   1.082       .  S
C1019      C1020   1.374       .  A
C1019      H1031   1.082       .  S
C1020      H1032   1.082       .  S
C1021      C1080   1.492       .  S
C1022      C1117   1.458       .  S
C1023      C1070   1.495       .  S
C1024      C1119   1.456       .  S
N1035      C1040   1.356       .  A
N1035      C1039   1.355       .  A
N1035      H1067   1.038       .  S
N1036      C1043   1.353       .  A
N1036      C1044   1.353       .  A
N1037      C1042   1.355       .  A
N1037      C1041   1.355       .  A
N1037      H1068   1.038       .  S
N1038      C1045   1.353       .  A
N1038      C1046   1.353       .  A
C1039      C1047   1.388       .  A
C1039      C1055   1.419       .  A
C1040      C1056   1.419       .  A
C1040      C1048   1.386       .  A
C1041      C1049   1.387       .  A
C1041      C1058   1.417       .  A
C1042      C1057   1.417       .  A
C1042      C1050   1.388       .  A
C1043      C1055   1.414       .  A
C1043      C1051   1.386       .  A
C1044      C1058   1.417       .  A
C1044      C1052   1.387       .  A
C1045      C1053   1.388       .  A
C1045      C1056   1.418       .  A
C1046      C1054   1.386       .  A
C1046      C1057   1.412       .  A
C1047      C1048   1.377       .  A
C1047      H1059   1.082       .  S
C1048      H1060   1.082       .  S
C1049      C1050   1.377       .  A
C1049      H1061   1.082       .  S
C1050      H1062   1.082       .  S
C1051      C1052   1.372       .  A
C1051      H1063   1.082       .  S
C1052      H1064   1.082       .  S
C1053      C1054   1.373       .  A
C1053      H1065   1.082       .  S
C1054      H1066   1.082       .  S
C1055      C1110   1.458       .  S
C1056      C1073   1.494       .  S
C1057      C1111   1.456       .  S
C1058      C1083   1.490       .  S
C1069      C1070   1.406       .  A
C1069      C1074   1.404       .  A
C1069      H1075   1.083       .  S
C1070      C1071   1.405       .  A
C1071      C1072   1.399       .  A
C1071      H1076   1.083       .  S
C1072      C1073   1.405       .  A
C1072      H1077   1.083       .  S
C1073      C1074   1.405       .  A
C1074      H1078   1.083       .  S
C1079      C1080   1.404       .  A
C1079      C1084   1.397       .  A
C1079      H1085   1.083       .  S
C1080      C1081   1.406       .  A
C1081      C1082   1.403       .  A
C1081      H1086   1.083       .  S
C1082      C1083   1.405       .  A
C1082      H1087   1.083       .  S
C1083      C1084   1.404       .  A
C1084      H1088   1.083       .  S
C1089      C1090   1.405       .  A
C1089      C1094   1.400       .  A
C1089      H1095   1.083       .  S
C1090      C1091   1.405   1_545  A
C1091      C1092   1.403       .  A
C1091      H1480   1.083       .  S
C1092      C1093   1.405   1_565  A
C1092      H1481   1.083       .  S
C1093      C1094   1.404       .  A
C1094      H1098   1.083       .  S
H1096      C1475   1.083       .  S
H1097      C1476   1.083       .  S
C1099      C1100   1.403   1_545  A
C1099      C1104   1.396       .  A
C1099      H1105   1.083       .  S
C1100      C1485   1.405       .  A
C1101      C1484   1.405       .  A
C1101      C1102   1.403       .  A
C1101      H1106   1.083       .  S
C1102      C1487   1.406       .  A
C1102      H1107   1.083       .  S
C1103      C1486   1.406       .  A
C1103      C1104   1.404   1_565  A
C1104      H1108   1.083       .  S
C1109      C1110   1.211       .  T
C1111      C1112   1.209       .  T
C1113      C1114   1.209       .  T
C1115      C1116   1.209       .  T
C1117      C1118   1.211       .  T
C1119      C1120   1.209       .  T
C1121      C1122   1.209       .  T
C1123      C1124   1.209       .  T
C1125      C1126   1.209       .  T
C1127      C1128   1.209       .  T
C1129      C1130   1.404       .  A
C1129      C1134   1.399       .  A
C1129      H1135   1.083       .  S
C1131      C1132   1.403       .  A
C1131      H1136   1.083       .  S
C1132      H1137   1.083       .  S
C1133      C1134   1.403       .  A
C1134      H1138   1.083       .  S
C1139      C1144   1.404       .  A
C1139      H1145   1.083       .  S
C1140      C1141   1.405       .  A
C1141      C1142   1.399       .  A
C1141      H1146   1.083       .  S
C1142      C1143   1.405       .  A
C1142      H1147   1.083       .  S
C1144      H1148   1.083       .  S
C1149      C1150   1.210       .  T
C1151      C1152   1.208       .  T
N1153      C1158   1.355       .  A
N1153      H1185   1.037       .  S
N1154      C1161   1.353   1_455  A
N1154      C1162   1.353   1_455  A
N1155      C1160   1.356       .  A
N1155      H1186   1.037       .  S
N1156      C1163   1.353       .  A
N1156      C1164   1.353       .  A
C1157      C1173   1.419       .  A
C1158      C1174   1.418   1_554  A
C1158      C1166   1.388       .  A
C1159      C1176   1.417   1_556  A
C1160      C1175   1.417       .  A
C1160      C1168   1.386       .  A
C1161      C1173   1.417   1_655  A
C1161      C1169   1.388       .  A
C1162      C1176   1.412   1_655  A
C1162      C1170   1.386       .  A
C1163      C1171   1.387       .  A
C1163      C1174   1.414       .  A
C1164      C1172   1.387       .  A
C1164      C1175   1.417       .  A
C1165      C1166   1.377       .  A
C1166      H1178   1.082       .  S
C1167      C1168   1.377       .  A
C1168      H1180   1.082       .  S
C1169      C1170   1.372       .  A
C1169      H1181   1.082       .  S
C1170      H1182   1.082       .  S
C1171      C1172   1.373       .  A
C1171      H1183   1.082       .  S
C1172      H1184   1.083       .  S
C1174      C1533   1.456       .  S
C1175      C1517   1.491       .  S
C1176      C1535   1.454       .  S
N1187      C1192   1.354       .  A
N1187      C1191   1.356       .  A
N1187      H1219   1.038       .  S
N1188      C1195   1.353       .  A
N1188      C1196   1.353       .  A
N1189      C1194   1.356       .  A
N1189      C1193   1.354       .  A
N1189      H1220   1.038       .  S
N1190      C1197   1.353       .  A
N1190      C1198   1.353       .  A
C1191      C1199   1.386       .  A
C1191      C1207   1.419       .  A
C1192      C1208   1.418       .  A
C1192      C1200   1.388       .  A
C1193      C1201   1.388       .  A
C1193      C1210   1.417       .  A
C1194      C1209   1.417       .  A
C1194      C1202   1.386       .  A
C1195      C1207   1.418       .  A
C1195      C1203   1.387       .  A
C1196      C1210   1.413       .  A
C1196      C1204   1.386       .  A
C1197      C1205   1.386       .  A
C1197      C1208   1.413       .  A
C1198      C1206   1.387       .  A
C1198      C1209   1.416       .  A
C1199      C1200   1.377       .  A
C1199      H1211   1.082       .  S
C1200      H1212   1.082       .  S
C1201      C1202   1.378       .  A
C1201      H1213   1.082       .  S
C1202      H1214   1.082       .  S
C1203      C1204   1.373       .  A
C1203      H1215   1.082       .  S
C1204      H1216   1.082       .  S
C1205      C1206   1.372       .  A
C1205      H1217   1.082       .  S
C1206      H1218   1.083       .  S
C1207      C1527   1.495       .  S
C1208      C1510   1.455       .  S
C1209      C1514   1.490       .  S
C1210      C1511   1.455       .  S
O1221      C1256   1.236       .  S
O1221     Mg1229   2.165   1_554  S
C1222      H1261   1.081       .  S
C1222      O1235   1.235       .  S
C1222      O1259   1.269       .  A
Mg1223     O1252   2.161   1_554  S
Mg1223     O1267   2.311   1_554  S
Mg1223     O1263   2.284       .  S
Mg1223     O1234   2.303       .  S
O1224      C1245   1.235       .  S
O1224     Mg1266   2.162   1_554  S
O1224     Mg1249   2.149       .  S
O1225     Mg1249   2.299       .  S
C1226      C1506   1.439       .  S
C1226      O1228   1.271       .  A
O1227     Mg1229   2.300       .  S
O1228     Mg1260   2.273       .  S
Mg1229     O1243   2.276       .  S
Mg1229     O1231   2.311   1_556  S
C1230      C1536   1.438       .  S
C1230      O1236   1.273   1_455  A
O1231      C1238   1.275       .  A
H1232      C1245   1.081       .  S
C1233      H1258   1.081       .  S
C1233      O1247   1.236       .  S
O1234      C1257   1.270       .  A
O1235     Mg1249   2.161   1_556  S
O1236     Mg1266   2.303   1_554  S
C1237      C1504   1.439       .  S
C1237      O1250   1.272       .  A
C1237      O1242   1.273       .  A
C1238      C1508   1.439       .  S
Mg1239     O1247   2.164   1_554  S
Mg1239     O1240   2.306   1_554  S
Mg1239     O1241   2.296       .  S
Mg1239     O1268   2.274       .  S
O1242     Mg1249   2.303   1_556  S
O1244      C1264   1.274       .  A
O1244     Mg1260   2.310   1_554  S
O1246      C1257   1.235       .  S
O1246     Mg1260   2.158   1_554  S
O1248     Mg1260   2.302       .  S
Mg1249     O1265   2.269       .  S
O1250     Mg1266   2.277       .  S
H1251      C1256   1.081       .  S
O1252      C1255   1.235       .  S
O1252     Mg1260   2.154       .  S
H1253      C1255   1.081       .  S
H1254      C1257   1.081       .  S
O1259     Mg1266   2.298       .  S
C1262      C1534   1.440       .  S
C1262      O1267   1.274       .  A
O1263      C1264   1.273       .  A
C1264      C1502   1.442       .  S
O1269      C1304   1.235       .  S
O1269     Mg1277   2.163       .  S
C1270      H1309   1.081       .  S
C1270      O1283   1.235       .  S
C1270      O1307   1.270       .  A
Mg1271     O1300   2.165       .  S
Mg1271     O1315   2.308       .  S
Mg1271     O1311   2.271       .  S
Mg1271     O1282   2.299       .  S
O1272      C1293   1.236       .  S
O1272     Mg1314   2.161       .  S
O1272     Mg1297   2.156       .  S
O1273     Mg1297   2.299       .  S
C1274      C1500   1.439       .  S
C1274      O1288   1.275       .  A
O1275     Mg1277   2.297       .  S
O1276     Mg1308   2.267       .  S
Mg1277     O1291   2.272       .  S
Mg1277     O1279   2.310       .  S
C1278      C1509   1.439       .  S
C1278      O1284   1.274       .  A
H1280      C1293   1.081       .  S
C1281      H1306   1.081       .  S
C1281      O1295   1.235       .  S
O1282      C1305   1.269       .  A
O1283     Mg1297   2.159       .  S
O1284     Mg1314   2.310       .  S
C1285      C1493   1.442       .  S
C1285      O1298   1.272       .  A
C1285      O1290   1.274       .  A
C1286      C1498   1.439       .  S
C1286      O1313   1.271       .  A
Mg1287     O1295   2.163       .  S
Mg1287     O1288   2.317       .  S
Mg1287     O1289   2.302   1_655  S
Mg1287     O1316   2.273       .  S
O1290     Mg1297   2.308       .  S
O1291      C1310   1.271       .  A
O1292      C1312   1.274       .  A
O1292     Mg1308   2.312       .  S
O1294      C1305   1.235       .  S
O1294     Mg1308   2.161       .  S
O1296     Mg1308   2.303   1_545  S
Mg1297     O1313   2.271       .  S
O1298     Mg1314   2.283       .  S
H1299      C1304   1.081       .  S
O1300      C1303   1.235       .  S
O1300     Mg1308   2.151       .  S
H1301      C1303   1.081       .  S
H1302      C1305   1.081       .  S
O1307     Mg1314   2.301       .  S
C1310      C1512   1.439       .  S
O1311      C1312   1.271       .  A
C1312      C1496   1.440       .  S
N1317      C1322   1.354       .  A
N1317      C1321   1.354       .  A
N1317      H1349   1.034       .  S
N1318      C1325   1.354       .  A
N1318      C1326   1.353       .  A
N1319      C1324   1.356       .  A
N1319      C1323   1.355       .  A
N1319      H1350   1.037       .  S
N1320      C1327   1.354       .  A
N1320      C1328   1.355       .  A
C1321      C1329   1.388       .  A
C1321      C1337   1.420       .  A
C1322      C1338   1.417       .  A
C1322      C1330   1.388       .  A
C1323      C1331   1.387       .  A
C1323      C1340   1.416       .  A
C1324      C1339   1.420       .  A
C1324      C1332   1.388       .  A
C1325      C1337   1.418       .  A
C1325      C1333   1.386       .  A
C1326      C1340   1.416   1_554  A
C1326      C1334   1.387       .  A
C1327      C1335   1.388       .  A
C1327      C1338   1.419   1_556  A
C1328      C1336   1.385       .  A
C1328      C1339   1.417       .  A
C1329      C1330   1.375       .  A
C1329      H1341   1.083       .  S
C1330      H1342   1.082       .  S
C1331      C1332   1.374       .  A
C1331      H1343   1.082       .  S
C1332      H1344   1.082       .  S
C1333      C1334   1.373       .  A
C1333      H1345   1.082       .  S
C1334      H1346   1.082       .  S
C1335      C1336   1.374       .  A
C1335      H1347   1.082       .  S
C1336      H1348   1.082       .  S
C1337      C1487   1.491       .  S
C1338      C1507   1.455       .  S
C1339      C1474   1.494       .  S
C1340      C1505   1.455       .  S
N1351      C1356   1.353       .  A
N1351      C1355   1.353       .  A
N1351      H1383   1.039       .  S
N1352      C1359   1.353       .  A
N1352      C1360   1.351       .  A
N1353      C1358   1.355       .  A
N1353      C1357   1.354       .  A
N1353      H1384   1.039       .  S
N1354      C1361   1.353       .  A
N1354      C1362   1.353       .  A
C1355      C1363   1.387       .  A
C1355      C1371   1.416       .  A
C1356      C1372   1.413       .  A
C1356      C1364   1.387       .  A
C1357      C1365   1.387       .  A
C1357      C1374   1.415       .  A
C1358      C1373   1.418       .  A
C1358      C1366   1.387       .  A
C1359      C1371   1.414       .  A
C1359      C1367   1.385       .  A
C1360      C1374   1.415       .  A
C1360      C1368   1.388       .  A
C1361      C1369   1.387       .  A
C1361      C1372   1.415       .  A
C1362      C1370   1.385       .  A
C1362      C1373   1.415       .  A
C1363      C1364   1.376       .  A
C1363      H1375   1.083       .  S
C1364      H1376   1.082       .  S
C1365      C1366   1.377       .  A
C1365      H1377   1.082       .  S
C1366      H1378   1.083       .  S
C1367      C1368   1.376       .  A
C1367      H1379   1.082       .  S
C1368      H1380   1.082       .  S
C1369      C1370   1.376       .  A
C1369      H1381   1.082       .  S
C1370      H1382   1.082       .  S
C1371      C1484   1.488       .  S
C1372      C1499   1.454       .  S
C1373      C1477   1.491       .  S
C1374      C1497   1.454       .  S
N1385      C1390   1.355       .  A
N1385      C1389   1.354       .  A
N1385      H1417   1.037       .  S
N1386      C1393   1.354       .  A
N1386      C1394   1.353       .  A
N1387      C1392   1.355       .  A
N1387      C1391   1.355       .  A
N1387      H1418   1.037       .  S
N1388      C1395   1.354       .  A
N1388      C1396   1.355       .  A
C1389      C1397   1.388       .  A
C1389      C1405   1.419       .  A
C1390      C1406   1.416       .  A
C1390      C1398   1.387       .  A
C1391      C1399   1.387       .  A
C1391      C1408   1.415       .  A
C1392      C1407   1.420       .  A
C1392      C1400   1.388       .  A
C1393      C1405   1.416       .  A
C1393      C1401   1.386       .  A
C1394      C1408   1.416   1_554  A
C1394      C1402   1.387       .  A
C1395      C1403   1.387       .  A
C1395      C1406   1.418   1_556  A
C1396      C1404   1.386       .  A
C1396      C1407   1.418       .  A
C1397      C1398   1.375       .  A
C1397      H1409   1.083       .  S
C1398      H1410   1.082       .  S
C1399      C1400   1.374       .  A
C1399      H1411   1.082       .  S
C1400      H1412   1.082       .  S
C1401      C1402   1.374       .  A
C1401      H1413   1.082       .  S
C1402      H1414   1.082       .  S
C1403      C1404   1.375       .  A
C1403      H1415   1.082       .  S
C1404      H1416   1.082       .  S
C1405      C1464   1.491       .  S
C1406      C1501   1.458       .  S
C1407      C1454   1.495       .  S
C1408      C1503   1.456       .  S
N1419      C1424   1.356       .  A
N1419      C1423   1.355       .  A
N1419      H1451   1.038       .  S
N1420      C1427   1.353       .  A
N1420      C1428   1.353       .  A
N1421      C1426   1.354       .  A
N1421      C1425   1.355       .  A
N1421      H1452   1.038       .  S
N1422      C1429   1.353       .  A
N1422      C1430   1.353       .  A
C1423      C1431   1.388       .  A
C1423      C1439   1.419       .  A
C1424      C1440   1.420       .  A
C1424      C1432   1.386       .  A
C1425      C1433   1.387       .  A
C1425      C1442   1.417       .  A
C1426      C1441   1.417       .  A
C1426      C1434   1.388       .  A
C1427      C1439   1.413       .  A
C1427      C1435   1.386       .  A
C1428      C1442   1.417       .  A
C1428      C1436   1.387       .  A
C1429      C1437   1.388       .  A
C1429      C1440   1.418       .  A
C1430      C1438   1.386       .  A
C1430      C1441   1.412       .  A
C1431      C1432   1.377       .  A
C1431      H1443   1.082       .  S
C1432      H1444   1.082       .  S
C1433      C1434   1.377       .  A
C1433      H1445   1.082       .  S
C1434      H1446   1.082       .  S
C1435      C1436   1.373       .  A
C1435      H1447   1.082       .  S
C1436      H1448   1.083       .  S
C1437      C1438   1.373       .  A
C1437      H1449   1.082       .  S
C1438      H1450   1.082       .  S
C1439      C1494   1.458       .  S
C1440      C1457   1.495       .  S
C1441      C1495   1.456       .  S
C1442      C1467   1.490       .  S
C1453      C1454   1.406       .  A
C1453      C1458   1.404       .  A
C1453      H1459   1.083       .  S
C1454      C1455   1.405       .  A
C1455      C1456   1.399       .  A
C1455      H1460   1.083       .  S
C1456      C1457   1.405       .  A
C1456      H1461   1.083       .  S
C1457      C1458   1.405       .  A
C1458      H1462   1.083       .  S
C1463      C1464   1.404       .  A
C1463      C1468   1.397       .  A
C1463      H1469   1.083       .  S
C1464      C1465   1.405       .  A
C1465      C1466   1.403       .  A
C1465      H1470   1.083       .  S
C1466      C1467   1.405       .  A
C1466      H1471   1.083       .  S
C1467      C1468   1.403       .  A
C1468      H1472   1.083       .  S
C1473      C1474   1.405       .  A
C1473      C1478   1.400       .  A
C1473      H1479   1.083       .  S
C1474      C1475   1.405       .  A
C1475      C1476   1.403       .  A
C1476      C1477   1.405       .  A
C1477      C1478   1.404       .  A
C1478      H1482   1.083       .  S
C1483      C1484   1.403       .  A
C1483      C1488   1.396       .  A
C1483      H1489   1.083       .  S
C1485      C1486   1.404       .  A
C1485      H1490   1.083       .  S
C1486      H1491   1.083       .  S
C1487      C1488   1.404       .  A
C1488      H1492   1.083       .  S
C1493      C1494   1.211       .  T
C1495      C1496   1.209       .  T
C1497      C1498   1.209       .  T
C1499      C1500   1.209       .  T
C1501      C1502   1.211       .  T
C1503      C1504   1.209       .  T
C1505      C1506   1.209       .  T
C1507      C1508   1.209       .  T
C1509      C1510   1.209       .  T
C1511      C1512   1.209       .  T
C1513      C1514   1.404       .  A
C1513      C1518   1.399       .  A
C1513      H1519   1.083       .  S
C1515      C1516   1.403       .  A
C1515      H1520   1.083       .  S
C1516      H1521   1.083       .  S
C1517      C1518   1.403       .  A
C1518      H1522   1.083       .  S
C1523      C1528   1.404       .  A
C1523      H1529   1.083       .  S
C1524      C1525   1.405       .  A
C1525      C1526   1.399       .  A
C1525      H1530   1.083       .  S
C1526      C1527   1.405       .  A
C1526      H1531   1.083       .  S
C1528      H1532   1.083       .  S
C1533      C1534   1.210       .  T
C1535      C1536   1.208       .  T
