geometry optimzed in LAMMPS
_audit_creation_date              2020-12-01 
_audit_creation_method            'lammps2cif' 
_symmetry_space_group_name_H-M    'P1' 
_symmetry_Int_Tables_number       1 
_symmetry_cell_setting            triclinic 
loop_ 
_symmetry_equiv_pos_as_xyz 
  x,y,z 
_cell_length_a                    24.22309986 
_cell_length_b                    24.208300540890022 
_cell_length_c                    38.9706382668162 
_cell_angle_alpha                 89.69740057621615 
_cell_angle_beta                  90.45862578306044 
_cell_angle_gamma                 89.69381696915134 
loop_ 
_atom_site_label 
_atom_site_type_symbol 
_atom_site_fract_x 
_atom_site_fract_y 
_atom_site_fract_z 
_atom_site_charge 
C1          C  0.19300059  0.49748311  0.30806110     0.80200
N2          N  0.20263012  0.44972427  0.29121484    -0.78100
C3          C  0.22126756  0.44955055  0.25847870     0.82600
N4          N  0.23072389  0.49856918  0.24197660    -0.78000
C5          C  0.21926220  0.54712566  0.25837529     0.82700
N6          N  0.20076063  0.54600731  0.29128300    -0.79800
C7          C  0.19070716  0.50963622  0.62548093     0.80200
N8          N  0.19500885  0.55653381  0.64398159    -0.78100
C9          C  0.20832015  0.55527844  0.67785484     0.82600
N10         N  0.21696468  0.50569425  0.69402203    -0.78000
C11         C  0.21137398  0.45792485  0.67575063     0.82700
N12         N  0.19927493  0.46048208  0.64155789    -0.79800
C13         C  0.99223812  0.79672234  0.80867619     0.80200
N14         N  0.94419009  0.78622712  0.79199861    -0.78100
C15         C  0.94382962  0.77357947  0.75803982     0.82600
N16         N  0.99239793  0.76976440  0.74053426    -0.78000
C17         C  0.04080797  0.77989426  0.75748873     0.82700
N18         N  0.03991238  0.79349443  0.79114910    -0.79800
C19         C  0.99105330  0.77413742  0.12474814     0.80200
N20         N  0.94476573  0.76805903  0.14329155    -0.78100
C21         C  0.94643424  0.75762482  0.17748212     0.82600
N22         N  0.99647471  0.75295678  0.19392954    -0.78000
C23         C  0.04385558  0.76007584  0.17531471     0.82700
N24         N  0.04042821  0.77046529  0.14098449    -0.79800
Zn25       Zn  0.28989378  0.69097153  0.73285491     1.49700
Zn26       Zn  0.17730299  0.72945260  0.69132457     1.49400
Zn27       Zn  0.21750001  0.79085225  0.75814034     1.49100
Zn28       Zn  0.28185226  0.81004677  0.68942938     1.49500
O29         O  0.24240156  0.75453073  0.71753909    -1.84100
O30         O  0.25922572  0.61818207  0.71308130    -0.74800
O31         O  0.10295616  0.74915206  0.71348731    -0.74600
O32         O  0.24432423  0.75451728  0.80137641    -0.74100
O33         O  0.18287063  0.64745166  0.68611712    -0.74800
O34         O  0.29526736  0.68305047  0.78561691    -0.74400
O35         O  0.13613957  0.79052976  0.75989718    -0.75000
O36         O  0.28251063  0.88868119  0.71031999    -0.74400
O37         O  0.17958312  0.75719656  0.64231404    -0.75100
O38         O  0.24291009  0.86841005  0.75993219    -0.74500
O39         O  0.25250253  0.81216553  0.64017023    -0.75000
O40         O  0.36011202  0.78304641  0.68519250    -0.74900
O41         O  0.36777154  0.70307377  0.71389736    -0.74700
C42         C  0.21649657  0.60902637  0.69455187     0.77100
C43         C  0.09564934  0.77339644  0.74206029     0.77600
C44         C  0.27416695  0.71286989  0.80910481     0.76600
C45         C  0.26674532  0.90257414  0.74023972     0.76900
C46         C  0.21240596  0.78771293  0.62534618     0.78100
C47         C  0.38819605  0.74116120  0.69510988     0.77100
Zn48       Zn  0.18576291  0.72260902  0.24343882     1.49700
Zn49       Zn  0.29552309  0.68333685  0.20039062     1.49400
Zn50       Zn  0.22056110  0.78473558  0.17505445     1.49100
Zn51       Zn  0.29062562  0.80340567  0.24126598     1.49500
O52         O  0.24863294  0.74769595  0.21534366    -1.84100
O53         O  0.19544058  0.64095181  0.25209651    -0.74800
O54         O  0.30273359  0.67899343  0.14741846    -0.74600
O55         O  0.13870419  0.77710046  0.17207625    -0.74100
O56         O  0.26512531  0.61015119  0.22029358    -0.74800
O57         O  0.10985887  0.73634247  0.21988977    -0.74400
O58         O  0.25279242  0.75267468  0.13284655    -0.75000
O59         O  0.29460058  0.88027610  0.21827917    -0.74400
O60         O  0.37336646  0.69226135  0.22089123    -0.75100
O61         O  0.24238029  0.86444425  0.17243575    -0.74500
O62         O  0.36688332  0.77312049  0.24796472    -0.75000
O63         O  0.26115913  0.81164104  0.28941238    -0.74900
O64         O  0.18806858  0.75679916  0.29114545    -0.74700
C65         C  0.22669935  0.60182496  0.24200352     0.77100
C66         C  0.28386338  0.71249054  0.12468568     0.77600
C67         C  0.09997476  0.75791869  0.19048405     0.76600
C68         C  0.27259509  0.89647622  0.19013215     0.76900
C69         C  0.39394442  0.72995929  0.23980307     0.78100
C70         C  0.22142165  0.78994222  0.30584793     0.77100
C71         C  0.49226873  0.72136001  0.31127885     0.80200
N72         N  0.44538881  0.72217910  0.29228693    -0.78100
C73         C  0.44677905  0.72137345  0.25758340     0.82600
N74         N  0.49635241  0.72062257  0.24116341    -0.78000
C75         C  0.54399887  0.72035175  0.26021956     0.82700
N76         N  0.54151354  0.72115211  0.29505461    -0.79800
C77         C  0.49313447  0.72114419  0.62894050     0.80200
N78         N  0.44441689  0.72734487  0.64522338    -0.78100
C79         C  0.44277784  0.73371943  0.67985451     0.82600
N80         N  0.49081084  0.73556493  0.69864643    -0.78000
C81         C  0.53994208  0.72953644  0.68205109     0.82700
N82         N  0.54013891  0.72208218  0.64762387    -0.79800
Zn83       Zn  0.79049258  0.80912559  0.70242873     1.49700
Zn84       Zn  0.71425878  0.71031941  0.68055372     1.49400
Zn85       Zn  0.78703565  0.69034549  0.74548018     1.49100
Zn86       Zn  0.68165484  0.77367503  0.74849854     1.49500
O87         O  0.74387883  0.74692117  0.71986275    -1.84100
O88         O  0.79216006  0.81433154  0.64895337    -0.74800
O89         O  0.74152554  0.63364023  0.67572410    -0.74600
O90         O  0.86359589  0.72057518  0.75241249    -0.74100
O91         O  0.73310224  0.74764953  0.63683069    -0.74800
O92         O  0.86891671  0.79837067  0.72145181    -0.74400
O93         O  0.79224826  0.61396529  0.72177800    -0.75000
O94         O  0.68469628  0.73800976  0.79637054    -0.74400
O95         O  0.63358770  0.71080366  0.68145698    -0.75100
O96         O  0.75648692  0.68073142  0.79330088    -0.74500
O97         O  0.60455208  0.75944220  0.72599892    -0.75000
O98         O  0.69283638  0.85628223  0.75559172    -0.74900
O99         O  0.76213733  0.88333830  0.72213697    -0.74700
C100        C  0.76425374  0.78655823  0.62710736     0.77100
C101        C  0.77161935  0.60030746  0.69285662     0.77600
C102        C  0.89018684  0.76262142  0.74192704     0.76600
C103        C  0.71736625  0.70268629  0.81029732     0.76900
C104        C  0.59481260  0.73246371  0.69853111     0.78100
C105        C  0.72460771  0.89400897  0.74408028     0.77100
Zn106      Zn  0.70463656  0.79579489  0.24696303     1.49700
Zn107      Zn  0.80865262  0.71202855  0.24569970     1.49400
Zn108      Zn  0.69391895  0.67908392  0.20319929     1.49100
Zn109      Zn  0.77049658  0.77650458  0.17892546     1.49500
O110        O  0.74389893  0.73998342  0.21922666    -1.84100
O111        O  0.73903426  0.80252749  0.29468940    -0.74800
O112        O  0.79746208  0.62993073  0.25142692    -0.74600
O113        O  0.61666732  0.69066116  0.22349413    -0.74100
O114        O  0.80988091  0.74391976  0.29428337    -0.74800
O115        O  0.62802384  0.76681633  0.25483544    -0.74400
O116        O  0.72318590  0.60415160  0.22131197    -0.75000
O117        O  0.74563299  0.74081999  0.13565527    -0.74400
O118        O  0.88429964  0.72672385  0.22220044    -0.75100
O119        O  0.68708862  0.67507922  0.15027475    -0.74500
O120        O  0.85188335  0.77436918  0.17757226    -0.75000
O121        O  0.74352182  0.85389682  0.17553945    -0.74900
O122        O  0.69882780  0.87299108  0.22355582    -0.74700
C123        C  0.77940047  0.77858692  0.31002915     0.77100
C124        C  0.76388811  0.59284455  0.24124219     0.77600
C125        C  0.59854659  0.72659972  0.24454471     0.76600
C126        C  0.71242756  0.70270955  0.12731253     0.76900
C127        C  0.89208887  0.75319341  0.19424702     0.78100
C128        C  0.71613044  0.88717763  0.19394476     0.77100
C129        C  0.79418594  0.48600196  0.30616863     0.80200
N130        N  0.78618236  0.53491099  0.28993981    -0.78100
C131        C  0.77073623  0.53727423  0.25641243     0.82600
N132        N  0.76293800  0.48934670  0.23848247    -0.78000
C133        C  0.77283813  0.43975264  0.25454723     0.82700
N134        N  0.78813165  0.43882323  0.28814614    -0.79800
C135        C  0.79788671  0.50300569  0.62293233     0.80200
N136        N  0.79211044  0.54956531  0.64157300    -0.78100
C137        C  0.78471662  0.54754022  0.67605729     0.82600
N138        N  0.78203105  0.49746073  0.69238782    -0.78000
C139        C  0.78710408  0.45015909  0.67353234     0.82700
N140        N  0.79463119  0.45358945  0.63908783    -0.79800
C141        C  0.69820525  0.00319735  0.80808146     0.80200
N142        N  0.70359466  0.95356622  0.79243181    -0.78100
C143        C  0.71921087  0.95005472  0.75901610     0.82600
N144        N  0.72993700  0.99748865  0.74084291    -0.78000
C145        C  0.72271391  0.04772931  0.75627273     0.82700
N146        N  0.70708328  0.04971756  0.78959901    -0.79800
C147        C  0.68509837  0.98872235  0.12596586     0.80200
N148        N  0.69034670  0.94105975  0.14404419    -0.78100
C149        C  0.70258367  0.94110008  0.17814249     0.82600
N150        N  0.71059940  0.99017856  0.19462362    -0.78000
C151        C  0.70604689  0.03851142  0.17642626     0.82700
N152        N  0.69386653  0.03714506  0.14231116    -0.79800
Zn153      Zn  0.68677020  0.22193532  0.73913767     1.49700
Zn154      Zn  0.72485258  0.28368970  0.67176503     1.49400
Zn155      Zn  0.79123888  0.30288880  0.73990494     1.49100
Zn156      Zn  0.80006479  0.18395614  0.69748742     1.49500
O157        O  0.75138546  0.24702019  0.71250910    -1.84100
O158        O  0.61181425  0.23831204  0.71516650    -0.74800
O159        O  0.75204337  0.36089335  0.66823975    -0.74600
O160        O  0.75969567  0.30941744  0.78800808    -0.74100
O161        O  0.64343104  0.28498586  0.67036520    -0.74800
O162        O  0.68569498  0.25582181  0.78706820    -0.74400
O163        O  0.79309807  0.38051728  0.71774246    -0.75000
O164        O  0.87897074  0.19667914  0.71671360    -0.74400
O165        O  0.74611504  0.24474806  0.62904127    -0.75100
O166        O  0.86895073  0.27504262  0.74618520    -0.74500
O167        O  0.80225643  0.17602319  0.64407959    -0.75000
O168        O  0.77101295  0.11052224  0.71884514    -0.74900
O169        O  0.69658956  0.14005435  0.74695847    -0.74700
C170        C  0.60355392  0.26519324  0.68732768     0.77100
C171        C  0.77672319  0.39475245  0.68779940     0.77600
C172        C  0.71811398  0.28839751  0.80301597     0.76600
C173        C  0.89816467  0.23411047  0.73650735     0.76900
C174        C  0.77619943  0.20379094  0.62101439     0.78100
C175        C  0.73006126  0.10154373  0.73866182     0.77100
Zn176      Zn  0.78087147  0.19991599  0.17461462     1.49700
Zn177      Zn  0.70453908  0.30138819  0.19499538     1.49400
Zn178      Zn  0.71128269  0.18612373  0.24191659     1.49100
Zn179      Zn  0.81541468  0.26712750  0.24035921     1.49500
O180        O  0.75235454  0.23938281  0.21329330    -1.84100
O181        O  0.75943252  0.23566708  0.13047560    -0.74800
O182        O  0.62592954  0.29126063  0.21329648    -0.74600
O183        O  0.70319242  0.10920309  0.21955048    -0.74100
O184        O  0.70412134  0.30635798  0.14145434    -0.74800
O185        O  0.75193872  0.12297089  0.17225383    -0.74400
O186        O  0.63572644  0.21915403  0.24899144    -0.75000
O187        O  0.81839289  0.23314621  0.28838835    -0.74400
O188        O  0.73072907  0.37591786  0.21521110    -0.75100
O189        O  0.74573128  0.17778243  0.28984085    -0.74500
O190        O  0.80174716  0.34802505  0.24782749    -0.75000
O191        O  0.89045153  0.25553373  0.21660699    -0.74900
O192        O  0.86288358  0.20146565  0.17395733    -0.74700
C193        C  0.73022221  0.27619237  0.12007259     0.77100
C194        C  0.60719778  0.25892085  0.23641015     0.77600
C195        C  0.72175338  0.09239547  0.19085433     0.76600
C196        C  0.78741240  0.19966291  0.30461616     0.76900
C197        C  0.76865172  0.38572734  0.23731502     0.78100
C198        C  0.90087604  0.22683289  0.19003991     0.77100
C199        C  0.51051415  0.29469151  0.30494779     0.80200
N200        N  0.46087212  0.28939873  0.28900469    -0.78100
C201        C  0.45757451  0.27607769  0.25523993     0.82600
N202        N  0.50473582  0.26713705  0.23703572    -0.78000
C203        C  0.55472083  0.27178951  0.25316976     0.82700
N204        N  0.55704364  0.28513289  0.28688667    -0.79800
C205        C  0.49810870  0.29387039  0.62120035     0.80200
N206        N  0.54658113  0.28601212  0.63790340    -0.78100
C207        C  0.54829779  0.27254404  0.67182512     0.82600
N208        N  0.50013768  0.26641860  0.68957790    -0.78000
C209        C  0.45100163  0.27544859  0.67284039     0.82700
N210        N  0.45079351  0.28888429  0.63897078    -0.79800
C211        C  0.30358677  0.00383027  0.80612159     0.80200
N212        N  0.29426972  0.95648820  0.78890580    -0.78100
C213        C  0.27971254  0.95668146  0.75526566     0.82600
N214        N  0.27298080  0.00585217  0.73828219    -0.78000
C215        C  0.28255400  0.05412095  0.75547452     0.82700
N216        N  0.29777538  0.05259209  0.78920229    -0.79800
C217        C  0.30268280  0.00241807  0.12469054     0.80200
N218        N  0.29403412  0.95349421  0.14075688    -0.78100
C219        C  0.28493411  0.95116177  0.17518635     0.82600
N220        N  0.28320123  0.99897566  0.19385364    -0.78000
C221        C  0.29080104  0.04843056  0.17744155     0.82700
N222        N  0.30027595  0.04929388  0.14322957    -0.79800
C223        C  0.99806754  0.22076110  0.80718152     0.80200
N224        N  0.04702878  0.22720482  0.79109746    -0.78100
C225        C  0.04922860  0.23277621  0.75640958     0.82600
N226        N  0.00143510  0.23264739  0.73737474    -0.78000
C227        C  0.95200359  0.22700620  0.75370368     0.82700
N228        N  0.95103263  0.22144571  0.78827562    -0.79800
C229        C  0.00727413  0.21055289  0.12401982     0.80200
N230        N  0.95852403  0.21313863  0.14055617    -0.78100
C231        C  0.95626255  0.22485608  0.17464915     0.82600
N232        N  0.00406121  0.23434025  0.19272472    -0.78000
C233        C  0.05343922  0.23065404  0.17602769     0.82700
N234        N  0.05408190  0.21902504  0.14205101    -0.79800
Zn235      Zn  0.20103104  0.19284260  0.70101230     1.49700
Zn236      Zn  0.27453255  0.29139058  0.67480003     1.49400
Zn237      Zn  0.21031316  0.31118683  0.74420447     1.49100
Zn238      Zn  0.31531016  0.22866804  0.74139192     1.49500
O239        O  0.24944868  0.25543284  0.71589470    -1.84100
O240        O  0.19357861  0.18657488  0.64812941    -0.74800
O241        O  0.24848335  0.36905224  0.67143955    -0.74600
O242        O  0.13218375  0.28252041  0.75106932    -0.74100
O243        O  0.24831470  0.25482171  0.63224600    -0.74800
O244        O  0.12377816  0.20450748  0.72103749    -0.74400
O245        O  0.20733697  0.38884454  0.72064052    -0.75000
O246        O  0.31596195  0.25877552  0.78968906    -0.74400
O247        O  0.35587527  0.28973965  0.67212608    -0.75100
O248        O  0.24450474  0.31635520  0.79285865    -0.74500
O249        O  0.38953277  0.24516847  0.71760469    -0.75000
O250        O  0.30803810  0.14677041  0.74824504    -0.74900
O251        O  0.23218731  0.11921098  0.72054211    -0.74700
C252        C  0.21671835  0.21500895  0.62463426     0.77100
C253        C  0.22345627  0.40293735  0.69067130     0.77600
C254        C  0.10390162  0.24112450  0.74101439     0.76600
C255        C  0.28549524  0.29134342  0.80695102     0.76900
C256        C  0.39653418  0.27023481  0.68911794     0.78100
C257        C  0.27433215  0.10902012  0.73957387     0.77100
Zn258      Zn  0.30168644  0.31442914  0.20202299     1.49700
Zn259      Zn  0.22939663  0.21487071  0.17721832     1.49400
Zn260      Zn  0.29884467  0.19445016  0.24422196     1.49100
Zn261      Zn  0.19122991  0.27412484  0.24516009     1.49500
O262        O  0.25595124  0.25033640  0.21773462    -1.84100
O263        O  0.30628350  0.32147641  0.14881301    -0.74800
O264        O  0.25236211  0.13650947  0.17517222    -0.74600
O265        O  0.37650573  0.22373491  0.25007666    -0.74100
O266        O  0.25626258  0.24919512  0.13396702    -0.74800
O267        O  0.37994408  0.30414485  0.22165220    -0.74400
O268        O  0.30126022  0.11668254  0.22199440    -0.75000
O269        O  0.19274295  0.23951358  0.29317761    -0.74400
O270        O  0.14849035  0.21897241  0.17510702    -0.75100
O271        O  0.26811077  0.18691962  0.29224899    -0.74500
O272        O  0.11548236  0.25905945  0.22171465    -0.75000
O273        O  0.19931012  0.35589184  0.25246445    -0.74900
O274        O  0.27035886  0.38698855  0.22190444    -0.74700
C275        C  0.28544056  0.29049176  0.12566650     0.77100
C276        C  0.28020278  0.10252098  0.19328021     0.77600
C277        C  0.40244112  0.26682916  0.24049537     0.76600
C278        C  0.22686763  0.20692416  0.30822238     0.76900
C279        C  0.10803801  0.23644682  0.19256316     0.78100
C280        C  0.23047606  0.39512435  0.24259351     0.77100
C281        C  0.22052566  0.19390117  0.34544825    -0.03200
C282        C  0.26165031  0.16322157  0.36281104    -0.05800
C283        C  0.26018535  0.15645941  0.39842816    -0.20900
C284        C  0.21729404  0.17943013  0.41779610     0.24800
C285        C  0.17460661  0.20811294  0.40045294    -0.18500
C286        C  0.17630864  0.21535567  0.36463647    -0.08400
C287        C  0.22259024  0.17786585  0.45594722    -0.18700
C288        C  0.18070428  0.18432237  0.47824820    -0.23500
C289        C  0.19090006  0.18903313  0.51596937     0.26900
C290        C  0.15212948  0.16919364  0.53970279    -0.20300
C291        C  0.16088492  0.17551709  0.57523936    -0.09900
C292        C  0.20794791  0.20310204  0.58755737    -0.10500
C293        C  0.24643891  0.22291365  0.56366078    -0.03400
C294        C  0.23813073  0.21595929  0.52848770    -0.18500
H295        H  0.29635979  0.14606887  0.34905059     0.10600
H296        H  0.29373858  0.13441389  0.41105673     0.10600
H297        H  0.14139075  0.22729245  0.41455408     0.10300
H298        H  0.14400695  0.23934810  0.35215252     0.11400
H299        H  0.26391086  0.17109238  0.46623652     0.11500
H300        H  0.13838824  0.18591528  0.46891262     0.13400
H301        H  0.11507750  0.14882194  0.53072196     0.09900
H302        H  0.13022767  0.16029328  0.59295823     0.12000
H303        H  0.28308350  0.24454382  0.57214672     0.08600
H304        H  0.26811400  0.23328658  0.51107616     0.11400
C305        C  0.29386916  0.30121293  0.08824874    -0.03200
C306        C  0.31734695  0.35035070  0.07573382    -0.05800
C307        C  0.32152703  0.35991386  0.04011806    -0.20900
C308        C  0.30334616  0.32018834  0.01633088     0.24800
C309        C  0.28046156  0.27098812  0.02900440    -0.18500
C310        C  0.27588261  0.26168756  0.06426798    -0.08400
C311        C  0.30551823  0.33141836  0.97850740    -0.18700
C312        C  0.31208899  0.29046338  0.95541566    -0.23500
C313        C  0.30975153  0.29707015  0.91725640     0.26900
C314        C  0.33476262  0.25613959  0.89719787    -0.20300
C315        C  0.32876100  0.25620174  0.86149004    -0.09900
C316        C  0.29651843  0.29667550  0.84459054    -0.10500
C317        C  0.27214585  0.33852357  0.86451100    -0.03400
C318        C  0.27902861  0.33899603  0.90048136    -0.18500
H319        H  0.33144025  0.38175701  0.09338749     0.10600
H320        H  0.33893486  0.39841492  0.03111572     0.10600
H321        H  0.26441925  0.24003340  0.01170238     0.10300
H322        H  0.25740111  0.22336339  0.07270582     0.11400
H323        H  0.30230761  0.37393890  0.96970741     0.11500
H324        H  0.32052576  0.24900884  0.96496548     0.13400
H325        H  0.35818845  0.22303079  0.90931031     0.09900
H326        H  0.34771057  0.22293490  0.84722493     0.12000
H327        H  0.24681099  0.37014005  0.85238655     0.08600
H328        H  0.25825506  0.37063846  0.91512819     0.11400
C329        C  0.99522102  0.21456909  0.84497814    -0.03200
C330        C  0.94407449  0.20553012  0.86084641    -0.05800
C331        C  0.94053467  0.20114382  0.89644629    -0.20900
C332        C  0.98794623  0.20507271  0.91707371     0.24800
C333        C  0.03931885  0.21390141  0.90135069    -0.18500
C334        C  0.04288292  0.21846984  0.86562570    -0.08400
C335        C  0.98137084  0.20314249  0.95484441    -0.18700
C336        C  0.02182146  0.18737350  0.97668717    -0.23500
C337        C  0.01626127  0.18937868  0.01459153     0.26900
C338        C  0.06445653  0.19253030  0.03459568    -0.20300
C339        C  0.06144463  0.19819642  0.07013447    -0.09900
C340        C  0.00999140  0.20046628  0.08659973    -0.10500
C341        C  0.96168614  0.19488829  0.06676581    -0.03400
C342        C  0.96472716  0.18916666  0.03113847    -0.18500
H343        H  0.90645903  0.20225062  0.84581311     0.10600
H344        H  0.90047478  0.19478052  0.90795209     0.10600
H345        H  0.07656439  0.21891857  0.91648284     0.10300
H346        H  0.08283202  0.22587743  0.85426203     0.11400
H347        H  0.94149500  0.21564348  0.96467791     0.11500
H348        H  0.06157565  0.17481410  0.96660764     0.13400
H349        H  0.10465690  0.19212210  0.02259294     0.09900
H350        H  0.09960529  0.20182009  0.08459340     0.12000
H351        H  0.92144676  0.19571611  0.07867086     0.08600
H352        H  0.92659140  0.18460595  0.01687035     0.11400
C353        C  0.31511163  0.00147999  0.84356446    -0.03200
C354        C  0.32924741  0.95085705  0.85925214    -0.05800
C355        C  0.33414967  0.94650886  0.89487358    -0.20900
C356        C  0.32506256  0.99249398  0.91589202     0.24800
C357        C  0.31242925  0.04373517  0.90014953    -0.18500
C358        C  0.30788837  0.04814923  0.86436325    -0.08400
C359        C  0.32599452  0.98375861  0.95382869    -0.18700
C360        C  0.32483267  0.02472193  0.97709189    -0.23500
C361        C  0.32205902  0.01576257  0.01493176     0.26900
C362        C  0.33190322  0.06107329  0.03637001    -0.20300
C363        C  0.32666505  0.05624839  0.07189198    -0.09900
C364        C  0.31132212  0.00581894  0.08706323    -0.10500
C365        C  0.30227849  0.96001930  0.06578074    -0.03400
C366        C  0.30723809  0.96492602  0.03008853    -0.18500
H367        H  0.33539437  0.91406071  0.84403462     0.10600
H368        H  0.34392999  0.90655868  0.90610008     0.10600
H369        H  0.30408574  0.08026664  0.91505790     0.10300
H370        H  0.29657031  0.08765777  0.85311180     0.11400
H371        H  0.32801686  0.94127203  0.96268171     0.11500
H372        H  0.32662170  0.06726092  0.96841803     0.13400
H373        H  0.34310594  0.10075676  0.02555741     0.09900
H374        H  0.33412914  0.09243820  0.08743619     0.12000
H375        H  0.28997381  0.92070799  0.07659913     0.08600
H376        H  0.29784085  0.92912496  0.01472792     0.11400
C377        C  0.49641757  0.30417778  0.58365120    -0.03200
C378        C  0.44542514  0.30902136  0.56640361    -0.05800
C379        C  0.44319516  0.31365242  0.53073342    -0.20900
C380        C  0.49171803  0.31415927  0.51135991     0.24800
C381        C  0.54298988  0.31078632  0.52855298    -0.18500
C382        C  0.54524495  0.30593968  0.56435858    -0.08400
C383        C  0.48634108  0.31392776  0.47338400    -0.18700
C384        C  0.52652298  0.32918697  0.45165500    -0.23500
C385        C  0.52096117  0.32461241  0.41371499     0.26900
C386        C  0.56899484  0.32116516  0.39395234    -0.20300
C387        C  0.56566669  0.31269552  0.35854135    -0.09900
C388        C  0.51404759  0.30779247  0.34203593    -0.10500
C389        C  0.46594015  0.31400094  0.36155275    -0.03400
C390        C  0.46927968  0.32260646  0.39692407    -0.18500
H391        H  0.40695776  0.30782970  0.58034467     0.10600
H392        H  0.40318824  0.31594265  0.51814350     0.10600
H393        H  0.58133156  0.30964190  0.51455732     0.10300
H394        H  0.58522389  0.30200819  0.57680069     0.11400
H395        H  0.44728878  0.29940811  0.46319619     0.11500
H396        H  0.56581852  0.34325568  0.46179965     0.13400
H397        H  0.60931767  0.32345457  0.40609046     0.09900
H398        H  0.60364127  0.30891012  0.34425743     0.12000
H399        H  0.42551454  0.31146819  0.34961231     0.08600
H400        H  0.43115370  0.32763748  0.41079436     0.11400
C401        C  0.79864442  0.18802581  0.34177829    -0.03200
C402        C  0.84275057  0.21377160  0.35907439    -0.05800
C403        C  0.85004469  0.20724340  0.39464499    -0.20900
C404        C  0.81320373  0.17537181  0.41404104     0.24800
C405        C  0.77051408  0.14757517  0.39654694    -0.18500
C406        C  0.76330891  0.15394320  0.36094827    -0.08400
C407        C  0.81964314  0.17344081  0.45235554    -0.18700
C408        C  0.77666508  0.16574203  0.47369687    -0.23500
C409        C  0.77917941  0.17230949  0.51182989     0.26900
C410        C  0.73070622  0.18856291  0.52850935    -0.20300
C411        C  0.73028991  0.19740995  0.56386670    -0.09900
C412        C  0.77805742  0.18896995  0.58399161    -0.10500
C413        C  0.82642539  0.17057862  0.56775654    -0.03400
C414        C  0.82717745  0.16279808  0.53186536    -0.18500
H415        H  0.87096754  0.24018348  0.34526745     0.10600
H416        H  0.88361258  0.22874085  0.40723552     0.10600
H417        H  0.74231788  0.12106424  0.41023646     0.10300
H418        H  0.72920985  0.13302080  0.34856084     0.11400
H419        H  0.85957084  0.18423390  0.46318832     0.11500
H420        H  0.73587698  0.16001453  0.46258296     0.13400
H421        H  0.69303533  0.19584397  0.51394726     0.09900
H422        H  0.69226859  0.21131289  0.57555383     0.12000
H423        H  0.86389203  0.16393756  0.58258997     0.08600
H424        H  0.86505028  0.14921101  0.51995657     0.11400
C425        C  0.70872204  0.30024613  0.84009275    -0.03200
C426        C  0.65989512  0.28359525  0.85645498    -0.05800
C427        C  0.65345866  0.29033976  0.89197101    -0.20900
C428        C  0.69597843  0.31289450  0.91214766     0.24800
C429        C  0.74387582  0.33169385  0.89557618    -0.18500
C430        C  0.75008463  0.32550523  0.86005144    -0.08400
C431        C  0.68993571  0.31464653  0.95034913    -0.18700
C432        C  0.73356655  0.30915201  0.97187472    -0.23500
C433        C  0.72980734  0.30253503  0.00991572     0.26900
C434        C  0.77187196  0.27258016  0.02657538    -0.20300
C435        C  0.77132719  0.26466540  0.06203450    -0.09900
C436        C  0.72913747  0.28734002  0.08233854    -0.10500
C437        C  0.68732020  0.31859419  0.06592935    -0.03400
C438        C  0.68737698  0.32578073  0.02993538    -0.18500
H439        H  0.62698983  0.26437696  0.84191148     0.10600
H440        H  0.61588074  0.27604353  0.90391172     0.10600
H441        H  0.77686353  0.35092989  0.90999976     0.10300
H442        H  0.78809081  0.33918637  0.84837409     0.11400
H443        H  0.64852875  0.31474630  0.96082119     0.11500
H444        H  0.77428391  0.30367077  0.96089663     0.13400
H445        H  0.80525128  0.25450241  0.01198569     0.09900
H446        H  0.80459018  0.24077799  0.07361164     0.12000
H447        H  0.65435144  0.33672410  0.08079061     0.08600
H448        H  0.65482439  0.35003963  0.01795191     0.11400
C449        C  0.67461491  0.98750183  0.08828477    -0.03200
C450        C  0.66906889  0.93687699  0.07108200    -0.05800
C451        C  0.66239429  0.93539778  0.03542118    -0.20900
C452        C  0.66142713  0.98430961  0.01590081     0.24800
C453        C  0.66515505  0.03517844  0.03316707    -0.18500
C454        C  0.67181154  0.03667264  0.06890582    -0.08400
C455        C  0.65688311  0.97990690  0.97779308    -0.18700
C456        C  0.67278048  0.01993223  0.95579857    -0.23500
C457        C  0.67383978  0.01409567  0.91765533     0.26900
C458        C  0.68222161  0.06173821  0.89770379    -0.20300
C459        C  0.68822752  0.05833540  0.86212761    -0.09900
C460        C  0.68642553  0.00696362  0.84543090    -0.10500
C461        C  0.67663288  0.95931382  0.86519528    -0.03400
C462        C  0.67047442  0.96272644  0.90085817    -0.18500
H463        H  0.67070689  0.89813574  0.08507874     0.10600
H464        H  0.65913891  0.89564898  0.02294095     0.10600
H465        H  0.66271330  0.07399962  0.01939910     0.10300
H466        H  0.67529429  0.07645233  0.08128877     0.11400
H467        H  0.64224435  0.94090475  0.96783184     0.11500
H468        H  0.68769085  0.05872985  0.96597828     0.13400
H469        H  0.68517470  0.10184224  0.90977768     0.09900
H470        H  0.69575815  0.09602279  0.84786253     0.12000
H471        H  0.67508702  0.91906964  0.85324215     0.08600
H472        H  0.66510529  0.92465020  0.91496715     0.11400
C473        C  0.80345626  0.50604945  0.58510180    -0.03200
C474        C  0.79963062  0.55708969  0.56783834    -0.05800
C475        C  0.80215101  0.55963901  0.53206381    -0.20900
C476        C  0.80903169  0.51144440  0.51266704     0.24800
C477        C  0.81324715  0.46032479  0.52994012    -0.18500
C478        C  0.81063347  0.45776367  0.56572698    -0.08400
C479        C  0.80839056  0.51624809  0.47460920    -0.18700
C480        C  0.82690217  0.47664547  0.45335282    -0.23500
C481        C  0.82178652  0.48054170  0.41542354     0.26900
C482        C  0.81887437  0.43156592  0.39643326    -0.20300
C483        C  0.81112880  0.43323989  0.36087859    -0.09900
C484        C  0.80662981  0.48411232  0.34346574    -0.10500
C485        C  0.81174745  0.53319775  0.36234243    -0.03400
C486        C  0.81940877  0.53148959  0.39790863    -0.18500
H487        H  0.79379734  0.59512327  0.58188659     0.10600
H488        H  0.79831428  0.59949630  0.51945834     0.10600
H489        H  0.81689846  0.42191016  0.51613874     0.10300
H490        H  0.81338519  0.41771828  0.57815650     0.11400
H491        H  0.79078609  0.55390536  0.46385444     0.11500
H492        H  0.84416501  0.43866140  0.46378422     0.13400
H493        H  0.82117650  0.39179209  0.40927076     0.09900
H494        H  0.80764875  0.39460503  0.34717641     0.12000
H495        H  0.80916073  0.57310964  0.34972820     0.08600
H496        H  0.82360972  0.57013817  0.41144489     0.11400
C497        C  0.76596076  0.79826259  0.58955965    -0.03200
C498        C  0.71935434  0.78535601  0.56944369    -0.05800
C499        C  0.72003641  0.79120590  0.53382645    -0.20900
C500        C  0.76764295  0.80901671  0.51691592     0.24800
C501        C  0.81444156  0.82288289  0.53684503    -0.18500
C502        C  0.81340155  0.81798774  0.57295903    -0.08400
C503        C  0.76528583  0.81318832  0.47865779    -0.18700
C504        C  0.80886710  0.80619910  0.45770146    -0.23500
C505        C  0.80280279  0.80306096  0.41943972     0.26900
C506        C  0.84053554  0.77128724  0.40059083    -0.20300
C507        C  0.83384459  0.76432602  0.36503992    -0.09900
C508        C  0.78955593  0.78966029  0.34726376    -0.10500
C509        C  0.75311677  0.82335301  0.36593965    -0.03400
C510        C  0.75965282  0.83005783  0.40147591    -0.18500
H511        H  0.68200368  0.77029510  0.58132052     0.10600
H512        H  0.68328152  0.78059209  0.51931093     0.10600
H513        H  0.85153026  0.83777262  0.52466108     0.10300
H514        H  0.84998794  0.82804763  0.58774637     0.11400
H515        H  0.72438158  0.81673236  0.46724929     0.11500
H516        H  0.84917103  0.79733856  0.46889419     0.13400
H517        H  0.87444150  0.75037370  0.41358694     0.09900
H518        H  0.86284800  0.73821560  0.35159621     0.12000
H519        H  0.71873839  0.84385421  0.35319764     0.08600
H520        H  0.73070646  0.85639506  0.41474496     0.11400
C521        C  0.71226060  0.68883613  0.84748896    -0.03200
C522        C  0.75379863  0.65746973  0.86401057    -0.05800
C523        C  0.75381163  0.65021331  0.89962306    -0.20900
C524        C  0.71192863  0.67322476  0.91979064     0.24800
C525        C  0.66882674  0.70256193  0.90329061    -0.18500
C526        C  0.66912436  0.71042117  0.86750918    -0.08400
C527        C  0.71845980  0.67091261  0.95786223    -0.18700
C528        C  0.67693787  0.67600250  0.98054729    -0.23500
C529        C  0.68741217  0.67956390  0.01828751     0.26900
C530        C  0.64855999  0.65913100  0.04175770    -0.20300
C531        C  0.65708053  0.66464018  0.07734523    -0.09900
C532        C  0.70404528  0.69193237  0.09004872    -0.10500
C533        C  0.74273234  0.71227361  0.06642344    -0.03400
C534        C  0.73463182  0.70613190  0.03114386    -0.18500
H535        H  0.78778959  0.64028348  0.84959538     0.10600
H536        H  0.78766358  0.62769817  0.91160136     0.10600
H537        H  0.63638761  0.72180319  0.91803609     0.10300
H538        H  0.63657938  0.73493807  0.85568928     0.11400
H539        H  0.76012211  0.66450579  0.96767855     0.11500
H540        H  0.63446766  0.67712178  0.97146603     0.13400
H541        H  0.61153820  0.63899306  0.03252313     0.09900
H542        H  0.62629783  0.64895757  0.09482512     0.12000
H543        H  0.77932091  0.73370568  0.07519408     0.08600
H544        H  0.76470325  0.72386400  0.01394967     0.11400
C545        C  0.48912085  0.72383029  0.34914829    -0.03200
C546        C  0.43837078  0.73481684  0.36509516    -0.05800
C547        C  0.43492490  0.73757881  0.40074217    -0.20900
C548        C  0.48183742  0.72869073  0.42133531     0.24800
C549        C  0.53290724  0.71846825  0.40546405    -0.18500
C550        C  0.53643773  0.71600370  0.36971043    -0.08400
C551        C  0.47570827  0.73162853  0.45910961    -0.18700
C552        C  0.51037239  0.70635968  0.48135218    -0.23500
C553        C  0.50398705  0.70947106  0.51906811     0.26900
C554        C  0.55120287  0.70367886  0.53975616    -0.20300
C555        C  0.54741553  0.70695690  0.57535585    -0.09900
C556        C  0.49605666  0.71554647  0.59117356    -0.10500
C557        C  0.44844824  0.71996654  0.57049763    -0.03400
C558        C  0.45231500  0.71689240  0.53476311    -0.18500
H559        H  0.40113907  0.74166292  0.35005135     0.10600
H560        H  0.39527859  0.74614075  0.41229473     0.10600
H561        H  0.57043772  0.71330713  0.42037998     0.10300
H562        H  0.57619888  0.70797215  0.35821201     0.11400
H563        H  0.44057515  0.75464508  0.46873103     0.11500
H564        H  0.54566383  0.68344208  0.47190475     0.13400
H565        H  0.59136375  0.69745521  0.52829800     0.09900
H566        H  0.58499498  0.70307516  0.59043345     0.12000
H567        H  0.40825868  0.72616252  0.58186968     0.08600
H568        H  0.41473374  0.71963568  0.51966083     0.11400
C569        C  0.21599344  0.80125020  0.34322107    -0.03200
C570        C  0.25193678  0.83827992  0.35970801    -0.05800
C571        C  0.25071447  0.84488453  0.39537455    -0.20900
C572        C  0.21399960  0.81435035  0.41564273     0.24800
C573        C  0.17670963  0.77858345  0.39904603    -0.18500
C574        C  0.17783432  0.77208039  0.36331852    -0.04400
C575        C  0.21600147  0.82146717  0.45375098    -0.18700
C576        C  0.19570123  0.78440099  0.47633915    -0.23500
C577        C  0.19887643  0.78991025  0.51450544     0.26900
C578        C  0.16413583  0.75678104  0.53453268    -0.20300
C579        C  0.16710627  0.75787615  0.57037791    -0.09900
C580        C  0.20546167  0.79177812  0.58736811    -0.10500
C581        C  0.24005818  0.82543603  0.56741856    -0.03400
C582        C  0.23683628  0.82459782  0.53141958    -0.18500
H583        H  0.28189806  0.86148642  0.34512364     0.10600
H584        H  0.27952892  0.87314017  0.40727170     0.10600
H585        H  0.14638115  0.75556499  0.41333401     0.10300
H586        H  0.14946324  0.74329891  0.35152645     0.11400
H587        H  0.23636868  0.85814158  0.46328144     0.11500
H588        H  0.17566661  0.74760173  0.46672885     0.13400
H589        H  0.13483688  0.72931204  0.52236624     0.09900
H590        H  0.14024736  0.73081982  0.58476048     0.12000
H591        H  0.27058459  0.85148655  0.57959903     0.08600
H592        H  0.26543255  0.84980818  0.51716259     0.11400
C593        C  0.28368242  0.70023568  0.84622395    -0.03200
C594        C  0.31255534  0.65275814  0.85749482    -0.05800
C595        C  0.32020316  0.64216742  0.89280760    -0.20900
C596        C  0.30003631  0.67925474  0.91746081     0.24800
C597        C  0.27053358  0.72613742  0.90604703    -0.18500
C598        C  0.26266516  0.73649307  0.87109312    -0.08400
C599        C  0.30782336  0.66816227  0.95499886    -0.18700
C600        C  0.31391502  0.71004335  0.97744684    -0.23500
C601        C  0.31287993  0.70611908  0.01573680     0.26900
C602        C  0.31294165  0.75611277  0.03378585    -0.20300
C603        C  0.30563691  0.75708180  0.06916705    -0.09900
C604        C  0.29880162  0.70798912  0.08793804    -0.10500
C605        C  0.30188706  0.65731260  0.07054461    -0.03400
C606        C  0.30841882  0.65631466  0.03457890    -0.18500
H607        H  0.32894631  0.62375248  0.83908916     0.10600
H608        H  0.34240452  0.60532017  0.90087764     0.10600
H609        H  0.25244109  0.75461902  0.92414308     0.10300
H610        H  0.23971637  0.77319853  0.86360880     0.11400
H611        H  0.30756874  0.62564232  0.96386562     0.11500
H612        H  0.31741334  0.75151843  0.96690937     0.13400
H613        H  0.31663538  0.79515678  0.02028168     0.09900
H614        H  0.30409133  0.79677332  0.08187223     0.12000
H615        H  0.29669876  0.61886526  0.08444531     0.08600
H616        H  0.30856942  0.61683077  0.02176593     0.11400
C617        C  0.98691682  0.78349416  0.08718797    -0.03200
C618        C  0.93474907  0.78501624  0.07107833    -0.05800
C619        C  0.93005575  0.79113091  0.03560774    -0.20900
C620        C  0.97717594  0.79654675  0.01531143     0.24800
C621        C  0.02955514  0.79576912  0.03127065    -0.18500
C622        C  0.03432417  0.78930845  0.06691382    -0.08400
C623        C  0.96966817  0.79878600  0.97754877    -0.18700
C624        C  0.00612107  0.82179639  0.95596642    -0.23500
C625        C  0.99987750  0.81990861  0.91800594     0.26900
C626        C  0.04714310  0.82632495  0.89790296    -0.20300
C627        C  0.04425894  0.82037621  0.86234116    -0.09900
C628        C  0.99380573  0.80815672  0.84597152    -0.10500
C629        C  0.94589418  0.80456457  0.86586246    -0.03400
C630        C  0.94877695  0.81063330  0.90148681    -0.18500
H631        H  0.89726686  0.78059414  0.08577393     0.10600
H632        H  0.88930992  0.79118100  0.02391439     0.10600
H633        H  0.06691008  0.79823954  0.01633188     0.10300
H634        H  0.07511255  0.78794374  0.07847817     0.11400
H635        H  0.93244464  0.77999328  0.96748332     0.11500
H636        H  0.04331358  0.84049461  0.96627237     0.13400
H637        H  0.08684375  0.83427833  0.90984396     0.09900
H638        H  0.08197101  0.82416119  0.84779912     0.12000
H639        H  0.90628113  0.79598559  0.85402606     0.08600
H640        H  0.91083044  0.80780370  0.91575741     0.11400
C641        C  0.17821054  0.49614024  0.34503828    -0.03200
C642        C  0.17089394  0.44531072  0.36205331    -0.05800
C643        C  0.16240045  0.44332241  0.39747232    -0.20900
C644        C  0.16137110  0.49190620  0.41693680     0.24800
C645        C  0.16611555  0.54303581  0.39974600    -0.18500
C646        C  0.17456236  0.54504837  0.36422572    -0.08400
C647        C  0.15614405  0.48696387  0.45495120    -0.18700
C648        C  0.17256125  0.52638008  0.47707776    -0.23500
C649        C  0.17229524  0.52015188  0.51517657     0.26900
C650        C  0.17621219  0.56799475  0.53519807    -0.20300
C651        C  0.18037067  0.56452210  0.57092883    -0.09900
C652        C  0.18137452  0.51288611  0.58770941    -0.10500
C653        C  0.17645446  0.46486949  0.56777064    -0.03400
C654        C  0.17201913  0.46837068  0.53191897    -0.18500
H655        H  0.17296847  0.40674132  0.34816518     0.10600
H656        H  0.15819652  0.40341279  0.40987175     0.10600
H657        H  0.16347496  0.58164994  0.41344559     0.10300
H658        H  0.17938527  0.58494918  0.35195071     0.11400
H659        H  0.14055151  0.44817487  0.46486422     0.11500
H660        H  0.18823395  0.56510981  0.46713121     0.13400
H661        H  0.17682302  0.60839977  0.52309393     0.09900
H662        H  0.18416865  0.60249247  0.58529763     0.12000
H663        H  0.17729557  0.42442909  0.57978446     0.08600
H664        H  0.17045091  0.43031924  0.51758154     0.11400
loop_ 
_geom_bond_atom_site_label_1 
_geom_bond_atom_site_label_2 
_geom_bond_distance 
_geom_bond_site_symmetry_2 
_ccdc_geom_bond_type 
C1            N2   1.353       .  A
C1            N6   1.356       .  A
C1          C641   1.488       .  S
N2            C3   1.357       .  A
C3            N4   1.368       .  A
C3          C280   1.475       .  S
N4            C5   1.369       .  A
C5            N6   1.362       .  A
C5           C65   1.479       .  S
C7            N8   1.352       .  A
C7           N12   1.356       .  A
C7          C652   1.489       .  S
N8            C9   1.357       .  A
C9           N10   1.367       .  A
C9           C42   1.471       .  S
N10          C11   1.368       .  A
C11          N12   1.363       .  A
C11         C253   1.477       .  S
C13          N14   1.354       .  A
C13          N18   1.349   1_655  A
C13         C628   1.481       .  S
N14          C15   1.360       .  A
C15          N16   1.368       .  A
C15         C102   1.465       .  S
N16          C17   1.365   1_655  A
C17          N18   1.354       .  A
C17          C43   1.471       .  S
C19          N20   1.347       .  A
C19          N24   1.351   1_655  A
C19         C617   1.482       .  S
N20          C21   1.355       .  A
C21          N22   1.370       .  A
C21         C127   1.478       .  S
N22          C23   1.374   1_655  A
C23          N24   1.362       .  A
C23          C67   1.479       .  S
Zn25         O29   2.002       .  S
Zn25         O30   2.066       .  S
Zn25         O34   2.067       .  S
Zn25         O41   2.053       .  S
Zn26         O29   1.972       .  S
Zn26         O31   2.058       .  S
Zn26         O33   2.000       .  S
Zn26         O37   2.023       .  S
Zn27         O29   1.914       .  S
Zn27         O32   1.999       .  S
Zn27         O35   1.973       .  S
Zn27         O38   1.980       .  S
Zn28         O29   1.984       .  S
Zn28         O36   2.074       .  S
Zn28         O39   2.042       .  S
Zn28         O40   2.010       .  S
O30          C42   1.278       .  A
O31          C43   1.275       .  A
O32          C44   1.271       .  A
O33          C42   1.273       .  A
O34          C44   1.277       .  A
O35          C43   1.270       .  A
O36          C45   1.276       .  A
O37          C46   1.275       .  A
O38          C45   1.270       .  A
O39          C46   1.276       .  A
O40          C47   1.275       .  A
O41          C47   1.278       .  A
C44         C593   1.493       .  S
C45         C213   1.472       .  S
C46         C580   1.491       .  S
C47          C79   1.465       .  S
Zn48         O52   1.979       .  S
Zn48         O53   2.016       .  S
Zn48         O57   2.073       .  S
Zn48         O64   2.040       .  S
Zn49         O52   2.015       .  S
Zn49         O54   2.076       .  S
Zn49         O56   2.072       .  S
Zn49         O60   2.055       .  S
Zn50         O52   1.922       .  S
Zn50         O55   1.995       .  S
Zn50         O58   1.986       .  S
Zn50         O61   2.006       .  S
Zn51         O52   1.971       .  S
Zn51         O59   2.064       .  S
Zn51         O62   1.998       .  S
Zn51         O63   2.023       .  S
O53          C65   1.275       .  A
O54          C66   1.278       .  A
O55          C67   1.274       .  A
O56          C65   1.279       .  A
O57          C67   1.277       .  A
O58          C66   1.270       .  A
O59          C68   1.275       .  A
O60          C69   1.277       .  A
O61          C68   1.271       .  A
O62          C69   1.274       .  A
O63          C70   1.275       .  A
O64          C70   1.276       .  A
C66         C604   1.484       .  S
C68         C219   1.476       .  S
C69          C73   1.464       .  S
C70         C569   1.490       .  S
C71          N72   1.351       .  A
C71          N76   1.355       .  A
C71         C545   1.480       .  S
N72          C73   1.353       .  A
C73          N74   1.365       .  A
N74          C75   1.367       .  A
C75          N76   1.360       .  A
C75         C125   1.468       .  S
C77          N78   1.352       .  A
C77          N82   1.347       .  A
C77         C556   1.481       .  S
N78          C79   1.360       .  A
C79          N80   1.371       .  A
N80          C81   1.367       .  A
C81          N82   1.355       .  A
C81         C104   1.474       .  S
Zn83         O87   2.006       .  S
Zn83         O88   2.088       .  S
Zn83         O92   2.048       .  S
Zn83         O99   2.073       .  S
Zn84         O87   1.911       .  S
Zn84         O89   1.977       .  S
Zn84         O91   1.982       .  S
Zn84         O95   1.955       .  S
Zn85         O87   1.980       .  S
Zn85         O90   2.014       .  S
Zn85         O93   2.075       .  S
Zn85         O96   2.023       .  S
Zn86         O87   1.990       .  S
Zn86         O94   2.052       .  S
Zn86         O97   2.088       .  S
Zn86         O98   2.039       .  S
O88         C100   1.279       .  A
O89         C101   1.268       .  A
O90         C102   1.275       .  A
O91         C100   1.268       .  A
O92         C102   1.278       .  A
O93         C101   1.275       .  A
O94         C103   1.278       .  A
O95         C104   1.268       .  A
O96         C103   1.276       .  A
O97         C104   1.278       .  A
O98         C105   1.279       .  A
O99         C105   1.279       .  A
C100        C497   1.490       .  S
C101        C137   1.473       .  S
C103        C521   1.492       .  S
C105        C143   1.485       .  S
Zn106       O110   1.979       .  S
Zn106       O111   2.040       .  S
Zn106       O115   2.013       .  S
Zn106       O122   2.079       .  S
Zn107       O110   1.984       .  S
Zn107       O112   2.019       .  S
Zn107       O114   2.049       .  S
Zn107       O118   2.086       .  S
Zn108       O110   2.011       .  S
Zn108       O113   2.056       .  S
Zn108       O116   2.063       .  S
Zn108       O119   2.071       .  S
Zn109       O110   1.916       .  S
Zn109       O117   1.989       .  S
Zn109       O120   1.973       .  S
Zn109       O121   1.984       .  S
O111        C123   1.277       .  A
O112        C124   1.277       .  A
O113        C125   1.277       .  A
O114        C123   1.278       .  A
O115        C125   1.275       .  A
O116        C124   1.278       .  A
O117        C126   1.269       .  A
O118        C127   1.277       .  A
O119        C126   1.277       .  A
O120        C127   1.271       .  A
O121        C128   1.270       .  A
O122        C128   1.277       .  A
C123        C508   1.496       .  S
C124        C131   1.475       .  S
C126        C532   1.489       .  S
C128        C149   1.475       .  S
C129        N130   1.352       .  A
C129        N134   1.352       .  A
C129        C484   1.482       .  S
N130        C131   1.357       .  A
C131        N132   1.371       .  A
N132        C133   1.370       .  A
C133        N134   1.358       .  A
C133        C197   1.477       .  S
C135        N136   1.351       .  A
C135        N140   1.352       .  A
C135        C473   1.483       .  S
N136        C137   1.358       .  A
C137        N138   1.368       .  A
N138        C139   1.369       .  A
C139        N140   1.358       .  A
C139        C171   1.473       .  S
C141        N142   1.356   1_545  A
C141        N146   1.353       .  A
C141        C460   1.489       .  S
N142        C143   1.362       .  A
C143        N144   1.373       .  A
N144        C145   1.371   1_565  A
C145        N146   1.357       .  A
C145        C175   1.482       .  S
C147        N148   1.354       .  A
C147        N152   1.354   1_565  A
C147        C449   1.489       .  S
N148        C149   1.359       .  A
C149        N150   1.368       .  A
N150        C151   1.368   1_565  A
C151        N152   1.360       .  A
C151        C195   1.474       .  S
Zn153       O157   1.981       .  S
Zn153       O158   2.071       .  S
Zn153       O162   2.044       .  S
Zn153       O169   2.016       .  S
Zn154       O157   1.920       .  S
Zn154       O159   1.989       .  S
Zn154       O161   1.973       .  S
Zn154       O165   1.988       .  S
Zn155       O157   1.978       .  S
Zn155       O160   2.037       .  S
Zn155       O163   2.065       .  S
Zn155       O166   2.009       .  S
Zn156       O157   2.016       .  S
Zn156       O164   2.073       .  S
Zn156       O167   2.092       .  S
Zn156       O168   2.087       .  S
O158        C170   1.276       .  A
O159        C171   1.271       .  A
O160        C172   1.276       .  A
O161        C170   1.269       .  A
O162        C172   1.276       .  A
O163        C171   1.275       .  A
O164        C173   1.280       .  A
O165        C174   1.269       .  A
O166        C173   1.275       .  A
O167        C174   1.280       .  A
O168        C175   1.281       .  A
O169        C175   1.277       .  A
C170        C207   1.474       .  S
C172        C425   1.494       .  S
C173        C227   1.470       .  S
C174        C412   1.490       .  S
Zn176       O180   1.920       .  S
Zn176       O181   1.986       .  S
Zn176       O185   1.996       .  S
Zn176       O192   1.988       .  S
Zn177       O180   2.015       .  S
Zn177       O182   2.054       .  S
Zn177       O184   2.089       .  S
Zn177       O188   2.073       .  S
Zn178       O180   1.978       .  S
Zn178       O183   2.070       .  S
Zn178       O186   2.015       .  S
Zn178       O189   2.048       .  S
Zn179       O180   1.972       .  S
Zn179       O187   2.041       .  S
Zn179       O190   2.008       .  S
Zn179       O191   2.065       .  S
O181        C193   1.269       .  A
O182        C194   1.278       .  A
O183        C195   1.276       .  A
O184        C193   1.280       .  A
O185        C195   1.271       .  A
O186        C194   1.276       .  A
O187        C196   1.276       .  A
O188        C197   1.278       .  A
O189        C196   1.277       .  A
O190        C197   1.275       .  A
O191        C198   1.276       .  A
O192        C198   1.272       .  A
C193        C436   1.494       .  S
C194        C203   1.467       .  S
C196        C401   1.496       .  S
C198        C231   1.475       .  S
C199        N200   1.356       .  A
C199        N204   1.353       .  A
C199        C388   1.483       .  S
N200        C201   1.358       .  A
C201        N202   1.366       .  A
C201        C277   1.468       .  S
N202        C203   1.365       .  A
C203        N204   1.356       .  A
C205        N206   1.350       .  A
C205        N210   1.349       .  A
C205        C377   1.483       .  S
N206        C207   1.360       .  A
C207        N208   1.369       .  A
N208        C209   1.369       .  A
C209        N210   1.358       .  A
C209        C256   1.474       .  S
C211        N212   1.350   1_545  A
C211        N216   1.355       .  A
C211        C353   1.484       .  S
N212        C213   1.355       .  A
C213        N214   1.367   1_565  A
N214        C215   1.370       .  A
C215        N216   1.363       .  A
C215        C257   1.475       .  S
C217        N218   1.355   1_545  A
C217        N222   1.350       .  A
C217        C364   1.485       .  S
N218        C219   1.362       .  A
C219        N220   1.371       .  A
N220        C221   1.368   1_565  A
C221        N222   1.355       .  A
C221        C276   1.473       .  S
C223        N224   1.355   1_655  A
C223        N228   1.352       .  A
C223        C329   1.482       .  S
N224        C225   1.359       .  A
C225        N226   1.370       .  A
C225        C254   1.473       .  S
N226        C227   1.368   1_455  A
C227        N228   1.354       .  A
C229        N230   1.351   1_455  A
C229        N234   1.346       .  A
C229        C340   1.482       .  S
N230        C231   1.362       .  A
C231        N232   1.371   1_655  A
N232        C233   1.369       .  A
C233        N234   1.355       .  A
C233        C279   1.474       .  S
Zn235       O239   2.006       .  S
Zn235       O240   2.074       .  S
Zn235       O244   2.052       .  S
Zn235       O251   2.071       .  S
Zn236       O239   1.923       .  S
Zn236       O241   1.983       .  S
Zn236       O243   1.985       .  S
Zn236       O247   1.974       .  S
Zn237       O239   1.989       .  S
Zn237       O242   2.038       .  S
Zn237       O245   2.089       .  S
Zn237       O248   2.068       .  S
Zn238       O239   1.977       .  S
Zn238       O246   2.022       .  S
Zn238       O249   2.069       .  S
Zn238       O250   2.008       .  S
O240        C252   1.278       .  A
O241        C253   1.269       .  A
O242        C254   1.278       .  A
O243        C252   1.269       .  A
O244        C254   1.278       .  A
O245        C253   1.280       .  A
O246        C255   1.275       .  A
O247        C256   1.270       .  A
O248        C255   1.279       .  A
O249        C256   1.275       .  A
O250        C257   1.274       .  A
O251        C257   1.279       .  A
C252        C292   1.489       .  S
C255        C316   1.495       .  S
Zn258       O262   2.007       .  S
Zn258       O263   2.084       .  S
Zn258       O267   2.052       .  S
Zn258       O274   2.067       .  S
Zn259       O262   1.910       .  S
Zn259       O264   1.976       .  S
Zn259       O266   1.991       .  S
Zn259       O270   1.963       .  S
Zn260       O262   1.982       .  S
Zn260       O265   2.025       .  S
Zn260       O268   2.077       .  S
Zn260       O271   2.027       .  S
Zn261       O262   1.989       .  S
Zn261       O269   2.046       .  S
Zn261       O272   2.078       .  S
Zn261       O273   2.012       .  S
O263        C275   1.279       .  A
O264        C276   1.269       .  A
O265        C277   1.276       .  A
O266        C275   1.269       .  A
O267        C277   1.278       .  A
O268        C276   1.275       .  A
O269        C278   1.277       .  A
O270        C279   1.269       .  A
O271        C278   1.276       .  A
O272        C279   1.276       .  A
O273        C280   1.276       .  A
O274        C280   1.278       .  A
C275        C305   1.496       .  S
C278        C281   1.492       .  S
C281        C282   1.406       .  A
C281        C286   1.410       .  A
C282        C283   1.398       .  A
C282        H295   1.083       .  S
C283        C284   1.403       .  A
C283        H296   1.083       .  S
C284        C285   1.409       .  A
C284        C287   1.492       .  S
C285        C286   1.407       .  A
C285        H297   1.082       .  S
C286        H298   1.083       .  S
C287        C288   1.350       .  D
C287        H299   1.087       .  S
C288        C289   1.494       .  S
C288        H300   1.085       .  S
C289        C290   1.408       .  A
C289        C294   1.405       .  A
C290        C291   1.409       .  A
C290        H301   1.083       .  S
C291        C292   1.407       .  A
C291        H302   1.083       .  S
C292        C293   1.407       .  A
C293        C294   1.395       .  A
C293        H303   1.083       .  S
C294        H304   1.083       .  S
C305        C306   1.408       .  A
C305        C310   1.409       .  A
C306        C307   1.410       .  A
C306        H319   1.083       .  S
C307        C308   1.409       .  A
C307        H320   1.083       .  S
C308        C309   1.405       .  A
C308        C311   1.499   1_554  S
C309        C310   1.397       .  A
C309        H321   1.082       .  S
C310        H322   1.083       .  S
C311        C312   1.352       .  D
C311        H323   1.085       .  S
C312        C313   1.495       .  S
C312        H324   1.086       .  S
C313        C314   1.403       .  A
C313        C318   1.410       .  A
C314        C315   1.398       .  A
C314        H325   1.084       .  S
C315        C316   1.407       .  A
C315        H326   1.083       .  S
C316        C317   1.410       .  A
C317        C318   1.410       .  A
C317        H327   1.083       .  S
C318        H328   1.082       .  S
C329        C330   1.407       .  A
C329        C334   1.406   1_655  A
C330        C331   1.394       .  A
C330        H343   1.083       .  S
C331        C332   1.400       .  A
C331        H344   1.084       .  S
C332        C333   1.408   1_655  A
C332        C335   1.482       .  S
C333        C334   1.399       .  A
C333        H345   1.082       .  S
C334        H346   1.083       .  S
C335        C336   1.345   1_655  D
C335        H347   1.084       .  S
C336        C337   1.485   1_556  S
C336        H348   1.085       .  S
C337        C338   1.401       .  A
C337        C342   1.410   1_455  A
C338        C339   1.395       .  A
C338        H349   1.084       .  S
C339        C340   1.407       .  A
C339        H350   1.083       .  S
C340        C341   1.405   1_455  A
C341        C342   1.399       .  A
C341        H351   1.083       .  S
C342        H352   1.081       .  S
C353        C354   1.406   1_545  A
C353        C358   1.405       .  A
C354        C355   1.396       .  A
C354        H367   1.083       .  S
C355        C356   1.403       .  A
C355        H368   1.084       .  S
C356        C357   1.412   1_565  A
C356        C359   1.492       .  S
C357        C358   1.402       .  A
C357        H369   1.080       .  S
C358        H370   1.083       .  S
C359        C360   1.347   1_565  D
C359        H371   1.084       .  S
C360        C361   1.491   1_556  S
C360        H372   1.083       .  S
C361        C362   1.403       .  A
C361        C366   1.412   1_545  A
C362        C363   1.395       .  A
C362        H373   1.084       .  S
C363        C364   1.407       .  A
C363        H374   1.083       .  S
C364        C365   1.405   1_545  A
C365        C366   1.402       .  A
C365        H375   1.083       .  S
C366        H376   1.080       .  S
C377        C378   1.406       .  A
C377        C382   1.407       .  A
C378        C379   1.395       .  A
C378        H391   1.083       .  S
C379        C380   1.402       .  A
C379        H392   1.084       .  S
C380        C381   1.408       .  A
C380        C383   1.485       .  S
C381        C382   1.400       .  A
C381        H393   1.081       .  S
C382        H394   1.083       .  S
C383        C384   1.347       .  D
C383        H395   1.084       .  S
C384        C385   1.488       .  S
C384        H396   1.085       .  S
C385        C386   1.403       .  A
C385        C390   1.409       .  A
C386        C387   1.398       .  A
C386        H397   1.084       .  S
C387        C388   1.407       .  A
C387        H398   1.083       .  S
C388        C389   1.404       .  A
C389        C390   1.397       .  A
C389        H399   1.083       .  S
C390        H400   1.080       .  S
C401        C402   1.409       .  A
C401        C406   1.408       .  A
C402        C403   1.404       .  A
C402        H415   1.083       .  S
C403        C404   1.405       .  A
C403        H416   1.083       .  S
C404        C405   1.410       .  A
C404        C407   1.500       .  S
C405        C406   1.404       .  A
C405        H417   1.082       .  S
C406        H418   1.083       .  S
C407        C408   1.351       .  D
C407        H419   1.086       .  S
C408        C409   1.496       .  S
C408        H420   1.085       .  S
C409        C410   1.402       .  A
C409        C414   1.412       .  A
C410        C411   1.396       .  A
C410        H421   1.084       .  S
C411        C412   1.406       .  A
C411        H422   1.083       .  S
C412        C413   1.407       .  A
C413        C414   1.413       .  A
C413        H423   1.083       .  S
C414        H424   1.082       .  S
C425        C426   1.408       .  A
C425        C430   1.408       .  A
C426        C427   1.404       .  A
C426        H439   1.083       .  S
C427        C428   1.405       .  A
C427        H440   1.083       .  S
C428        C429   1.409       .  A
C428        C431   1.498       .  S
C429        C430   1.402       .  A
C429        H441   1.082       .  S
C430        H442   1.083       .  S
C431        C432   1.350       .  D
C431        H443   1.086       .  S
C432        C433   1.494   1_556  S
C432        H444   1.086       .  S
C433        C434   1.401       .  A
C433        C438   1.412       .  A
C434        C435   1.394       .  A
C434        H445   1.084       .  S
C435        C436   1.408       .  A
C435        H446   1.083       .  S
C436        C437   1.408       .  A
C437        C438   1.413       .  A
C437        H447   1.083       .  S
C438        H448   1.082       .  S
C449        C450   1.407       .  A
C449        C454   1.407   1_565  A
C450        C451   1.398       .  A
C450        H463   1.083       .  S
C451        C452   1.404       .  A
C451        H464   1.083       .  S
C452        C453   1.409   1_565  A
C452        C455   1.493   1_554  S
C453        C454   1.401       .  A
C453        H465   1.081       .  S
C454        H466   1.083       .  S
C455        C456   1.350   1_565  D
C455        H467   1.083       .  S
C456        C457   1.494       .  S
C456        H468   1.084       .  S
C457        C458   1.404       .  A
C457        C462   1.411   1_545  A
C458        C459   1.398       .  A
C458        H469   1.084       .  S
C459        C460   1.407       .  A
C459        H470   1.083       .  S
C460        C461   1.406   1_545  A
C461        C462   1.402       .  A
C461        H471   1.083       .  S
C462        H472   1.080       .  S
C473        C474   1.406       .  A
C473        C478   1.406       .  A
C474        C475   1.397       .  A
C474        H487   1.083       .  S
C475        C476   1.403       .  A
C475        H488   1.084       .  S
C476        C477   1.408       .  A
C476        C479   1.487       .  S
C477        C478   1.398       .  A
C477        H489   1.080       .  S
C478        H490   1.083       .  S
C479        C480   1.348       .  D
C479        H491   1.085       .  S
C480        C481   1.485       .  S
C480        H492   1.084       .  S
C481        C482   1.403       .  A
C481        C486   1.407       .  A
C482        C483   1.397       .  A
C482        H493   1.084       .  S
C483        C484   1.406       .  A
C483        H494   1.083       .  S
C484        C485   1.406       .  A
C485        C486   1.397       .  A
C485        H495   1.083       .  S
C486        H496   1.081       .  S
C497        C498   1.407       .  A
C497        C502   1.408       .  A
C498        C499   1.395       .  A
C498        H511   1.084       .  S
C499        C500   1.402       .  A
C499        H512   1.084       .  S
C500        C501   1.412       .  A
C500        C503   1.494       .  S
C501        C502   1.412       .  A
C501        H513   1.082       .  S
C502        H514   1.083       .  S
C503        C504   1.350       .  D
C503        H515   1.086       .  S
C504        C505   1.499       .  S
C504        H516   1.086       .  S
C505        C506   1.406       .  A
C505        C510   1.409       .  A
C506        C507   1.405       .  A
C506        H517   1.083       .  S
C507        C508   1.408       .  A
C507        H518   1.083       .  S
C508        C509   1.408       .  A
C509        C510   1.403       .  A
C509        H519   1.083       .  S
C510        H520   1.082       .  S
C521        C522   1.407       .  A
C521        C526   1.409       .  A
C522        C523   1.398       .  A
C522        H535   1.083       .  S
C523        C524   1.403       .  A
C523        H536   1.083       .  S
C524        C525   1.409       .  A
C524        C527   1.492       .  S
C525        C526   1.406       .  A
C525        H537   1.082       .  S
C526        H538   1.083       .  S
C527        C528   1.350       .  D
C527        H539   1.086       .  S
C528        C529   1.494   1_556  S
C528        H540   1.085       .  S
C529        C530   1.407       .  A
C529        C534   1.405       .  A
C530        C531   1.408       .  A
C530        H541   1.083       .  S
C531        C532   1.407       .  A
C531        H542   1.083       .  S
C532        C533   1.408       .  A
C533        C534   1.396       .  A
C533        H543   1.083       .  S
C534        H544   1.083       .  S
C545        C546   1.407       .  A
C545        C550   1.405       .  A
C546        C547   1.394       .  A
C546        H559   1.083       .  S
C547        C548   1.401       .  A
C547        H560   1.083       .  S
C548        C549   1.409       .  A
C548        C551   1.483       .  S
C549        C550   1.398       .  A
C549        H561   1.081       .  S
C550        H562   1.083       .  S
C551        C552   1.345       .  D
C551        H563   1.085       .  S
C552        C553   1.481       .  S
C552        H564   1.085       .  S
C553        C554   1.400       .  A
C553        C558   1.409       .  A
C554        C555   1.394       .  A
C554        H565   1.084       .  S
C555        C556   1.408       .  A
C555        H566   1.083       .  S
C556        C557   1.405       .  A
C557        C558   1.399       .  A
C557        H567   1.083       .  S
C558        H568   1.082       .  S
C569        C570   1.407       .  A
C569        C574   1.407       .  A
C570        C571   1.400       .  A
C570        H583   1.083       .  S
C571        C572   1.405       .  A
C571        H584   1.083       .  S
C572        C573   1.410       .  A
C572        C575   1.496       .  S
C573        C574   1.402       .  A
C573        H585   1.081       .  S
C574        H586   1.083       .  S
C575        C576   1.351       .  D
C575        H587   1.084       .  S
C576        C577   1.495       .  S
C576        H588   1.084       .  S
C577        C578   1.404       .  A
C577        C582   1.411       .  A
C578        C579   1.399       .  A
C578        H589   1.083       .  S
C579        C580   1.407       .  A
C579        H590   1.083       .  S
C580        C581   1.408       .  A
C581        C582   1.405       .  A
C581        H591   1.083       .  S
C582        H592   1.081       .  S
C593        C594   1.409       .  A
C593        C598   1.407       .  A
C594        C595   1.409       .  A
C594        H607   1.083       .  S
C595        C596   1.407       .  A
C595        H608   1.083       .  S
C596        C597   1.406       .  A
C596        C599   1.496       .  S
C597        C598   1.395       .  A
C597        H609   1.082       .  S
C598        H610   1.083       .  S
C599        C600   1.351       .  D
C599        H611   1.084       .  S
C600        C601   1.495   1_556  S
C600        H612   1.087       .  S
C601        C602   1.403       .  A
C601        C606   1.413       .  A
C602        C603   1.392       .  A
C602        H613   1.084       .  S
C603        C604   1.403       .  A
C603        H614   1.084       .  S
C604        C605   1.407       .  A
C605        C606   1.412       .  A
C605        H615   1.083       .  S
C606        H616   1.081       .  S
C617        C618   1.407       .  A
C617        C622   1.406   1_655  A
C618        C619   1.393       .  A
C618        H631   1.083       .  S
C619        C620   1.400       .  A
C619        H632   1.084       .  S
C620        C621   1.409   1_655  A
C620        C623   1.482   1_554  S
C621        C622   1.401       .  A
C621        H633   1.082       .  S
C622        H634   1.083       .  S
C623        C624   1.345   1_655  D
C623        H635   1.084       .  S
C624        C625   1.487   1_455  S
C624        H636   1.086       .  S
C625        C626   1.401   1_655  A
C625        C630   1.410       .  A
C626        C627   1.395       .  A
C626        H637   1.084       .  S
C627        C628   1.408   1_455  A
C627        H638   1.083       .  S
C628        C629   1.404       .  A
C629        C630   1.398       .  A
C629        H639   1.083       .  S
C630        H640   1.080       .  S
C641        C642   1.407       .  A
C641        C646   1.406       .  A
C642        C643   1.398       .  A
C642        H655   1.083       .  S
C643        C644   1.403       .  A
C643        H656   1.084       .  S
C644        C645   1.410       .  A
C644        C647   1.492       .  S
C645        C646   1.402       .  A
C645        H657   1.081       .  S
C646        H658   1.083       .  S
C647        C648   1.349       .  D
C647        H659   1.084       .  S
C648        C649   1.492       .  S
C648        H660   1.084       .  S
C649        C650   1.403       .  A
C649        C654   1.410       .  A
C650        C651   1.397       .  A
C650        H661   1.084       .  S
C651        C652   1.408       .  A
C651        H662   1.083       .  S
C652        C653   1.407       .  A
C653        C654   1.403       .  A
C653        H663   1.083       .  S
C654        H664   1.081       .  S
