geometry optimzed in LAMMPS
_audit_creation_date              2020-11-30 
_audit_creation_method            'lammps2cif' 
_symmetry_space_group_name_H-M    'P1' 
_symmetry_Int_Tables_number       1 
_symmetry_cell_setting            triclinic 
loop_ 
_symmetry_equiv_pos_as_xyz 
  x,y,z 
_cell_length_a                    47.89334797088904 
_cell_length_b                    48.109972130944286 
_cell_length_c                    48.19451410961238 
_cell_angle_alpha                 89.34268295998045 
_cell_angle_beta                  90.5669476336675 
_cell_angle_gamma                 90.37540398268311 
loop_ 
_atom_site_label 
_atom_site_type_symbol 
_atom_site_fract_x 
_atom_site_fract_y 
_atom_site_fract_z 
_atom_site_charge 
C1          C  0.79766776  0.18770837  0.97657578     0.04090
C2          C  0.79121629  0.21590811  0.97799467    -0.12060
C3          C  0.80135755  0.23225853  0.99985093     0.01590
C4          C  0.81430817  0.21858127  0.02218470    -0.10590
C5          C  0.81289523  0.18947996  0.02453531     0.04080
C6          C  0.80757611  0.17389150  0.00046475    -0.10010
H7          H  0.78036966  0.22536705  0.96052123     0.09670
H8          H  0.82284205  0.23032149  0.03921050     0.07200
H9          H  0.80982739  0.15150659  0.00070338     0.07050
C10         C  0.69394166  0.34059514  0.97029253     0.04090
C11         C  0.72303958  0.33830897  0.97252074    -0.12060
C12         C  0.73479893  0.32366470  0.99495654     0.01590
C13         C  0.71743183  0.31791343  0.01769780    -0.10590
C14         C  0.69065517  0.32890205  0.01912943     0.04080
C15         C  0.67782399  0.33879005  0.99464595    -0.10010
H16         H  0.73549639  0.34414950  0.95471670     0.09670
H17         H  0.72489131  0.30614102  0.03546168     0.07200
H18         H  0.65574277  0.34341031  0.99416066     0.07050
C19         C  0.79067452  0.97711281  0.17049340     0.04090
C20         C  0.76247397  0.97140778  0.17573175    -0.12060
C21         C  0.74421827  0.99256819  0.18168518     0.01590
C22         C  0.75292702  0.02002789  0.17908399    -0.10590
C23         C  0.78029671  0.02688035  0.17124080     0.04080
C24         C  0.79983538  0.00515471  0.16787560    -0.10010
H25         H  0.75566720  0.95018306  0.17977303     0.09670
H26         H  0.73861929  0.03634550  0.18483351     0.07200
H27         H  0.82156446  0.00986519  0.16386808     0.07050
C28         C  0.66205713  0.03130920  0.29628384     0.04090
C29         C  0.65847694  0.02342727  0.26850200    -0.12060
C30         C  0.65870360  0.99544379  0.26157026     0.01590
C31         C  0.65338291  0.97565158  0.28194046    -0.10590
C32         C  0.65418824  0.98268368  0.31014031     0.04080
C33         C  0.65961888  0.01062303  0.31748090    -0.10010
H34         H  0.66125426  0.03872131  0.25204611     0.09670
H35         H  0.65354792  0.95394926  0.27606794     0.07200
H36         H  0.66292999  0.01589811  0.33904094     0.07050
O37         O  0.72351767  0.33339948  0.28643382    -0.73470
O38         O  0.75301672  0.33184928  0.36128606    -0.73500
O39         O  0.74983884  0.37032066  0.32131987    -0.73560
O40         O  0.72594129  0.29447216  0.32687381    -0.73600
O41         O  0.76739205  0.28087227  0.31153676    -0.73540
O42         O  0.79143874  0.35763667  0.30661698    -0.73510
O43         O  0.79429050  0.31816788  0.34575735    -0.73490
O44         O  0.76545508  0.32116837  0.27126496    -0.73560
Ni45       Ni  0.73660261  0.33287119  0.32451243     1.25410
Ni46       Ni  0.78102279  0.31880241  0.30812618     1.25360
C47         C  0.73988381  0.32747724  0.26647852     0.88710
C48         C  0.77907585  0.32685896  0.36548129     0.88640
C49         C  0.77498116  0.37671069  0.31494907     0.88670
C50         C  0.74240469  0.27517802  0.31944490     0.88840
O51         O  0.70512944  0.31895709  0.23112626    -0.73470
O52         O  0.68237218  0.31729040  0.15383796    -0.73500
O53         O  0.70820967  0.28076959  0.18957313    -0.73560
O54         O  0.67862007  0.35434826  0.19493204    -0.73600
O55         O  0.71989640  0.37166194  0.18205355    -0.73540
O56         O  0.75034122  0.29737584  0.17880183    -0.73510
O57         O  0.72448308  0.33313905  0.14229626    -0.73490
O58         O  0.74650822  0.33623221  0.21858101    -0.73560
Ni59       Ni  0.69217740  0.31708826  0.19286740     1.25410
Ni60       Ni  0.73676415  0.33522380  0.18002439     1.25360
C61         C  0.72975419  0.32780730  0.23743155     0.88710
C62         C  0.69953910  0.32618888  0.13540217     0.88640
C63         C  0.73391276  0.27675055  0.18365957     0.88670
C64         C  0.69414074  0.37507228  0.18845415     0.88840
O65         O  0.76674302  0.19949603  0.22986456    -0.73470
O66         O  0.79070418  0.20290866  0.15447609    -0.73500
O67         O  0.76859183  0.24077581  0.19040270    -0.73560
O68         O  0.78799786  0.16236229  0.19227253    -0.73600
O69         O  0.74419432  0.15229623  0.18057600    -0.73540
O70         O  0.72610103  0.22915582  0.17503610    -0.73510
O71         O  0.74844547  0.19037328  0.14031284    -0.73490
O72         O  0.72311830  0.19080784  0.21567393    -0.73560
Ni73       Ni  0.78001840  0.20192485  0.19243192     1.25410
Ni74       Ni  0.73396561  0.19038365  0.17743715     1.25360
C75         C  0.74092040  0.19524174  0.23518122     0.88710
C76         C  0.77435800  0.19471090  0.13508305     0.88640
C77         C  0.74375626  0.24765821  0.18260933     0.88670
C78         C  0.76939516  0.14453741  0.18462099     0.88840
O79         O  0.70643781  0.20366394  0.26895737    -0.73470
O80         O  0.67965423  0.20283205  0.34334923    -0.73500
O81         O  0.70656288  0.24156946  0.31077106    -0.73560
O82         O  0.68024640  0.16634190  0.30249862    -0.73600
O83         O  0.72183656  0.15130739  0.31738820    -0.73540
O84         O  0.74812183  0.22619451  0.32518924    -0.73510
O85         O  0.72076918  0.18794153  0.35862808    -0.73490
O86         O  0.74807402  0.18880144  0.28383058    -0.73560
Ni87       Ni  0.69185596  0.20439226  0.30585049     1.25410
Ni88       Ni  0.73620299  0.18814464  0.32186046     1.25360
C89         C  0.73140747  0.19589343  0.26404444     0.88710
C90         C  0.69489649  0.19303137  0.36301354     0.88640
C91         C  0.73183386  0.24626881  0.31872088     0.88670
C92         C  0.69677041  0.14651476  0.30920664     0.88840
C93         C  0.80082321  0.32654458  0.52375578     0.04090
C94         C  0.77203146  0.32145480  0.52249209    -0.12060
C95         C  0.75763515  0.32351966  0.49747359     0.01590
C96         C  0.77076113  0.33503214  0.47457297    -0.10590
C97         C  0.79966260  0.34012013  0.47485281     0.04080
C98         C  0.81507012  0.33555043  0.49966097    -0.10010
H99         H  0.76165455  0.31195318  0.54018131     0.09670
H100        H  0.75920775  0.33566724  0.45509123     0.07200
H101        H  0.83758101  0.33776065  0.49991608     0.07050
C102        C  0.66135883  0.19402348  0.47309214     0.04090
C103        C  0.66701672  0.22264928  0.47233767    -0.12060
C104        C  0.67681278  0.23619259  0.49577111     0.01590
C105        C  0.67746181  0.22225744  0.52107468    -0.10590
C106        C  0.66969406  0.19425022  0.52300795     0.04080
C107        C  0.66196537  0.17965676  0.49886495    -0.10010
H108        H  0.66824509  0.23356458  0.45254201     0.09670
H109        H  0.68536597  0.23291998  0.53929170     0.07200
H110        H  0.65736289  0.15761231  0.49998069     0.07050
O111        O  0.80335802  0.79402117  0.27062914    -0.73470
O112        O  0.80132709  0.86856042  0.24068473    -0.73500
O113        O  0.76492999  0.83474619  0.27054652    -0.73560
O114        O  0.83896934  0.82859804  0.24092936    -0.73600
O115        O  0.82138338  0.81427598  0.20073251    -0.73540
O116        O  0.74735636  0.81850976  0.23087886    -0.73510
O117        O  0.78264422  0.85291895  0.20164525    -0.73490
O118        O  0.78726786  0.77809851  0.23023620    -0.73560
Ni119      Ni  0.80265599  0.83193691  0.25718948     1.25410
Ni120      Ni  0.78388766  0.81517002  0.21462372     1.25360
C121        C  0.79546949  0.77374004  0.25535038     0.88710
C122        C  0.79413817  0.87271201  0.21525151     0.88640
C123        C  0.74392000  0.82725832  0.25566845     0.88670
C124        C  0.84204982  0.82360191  0.21503535     0.88840
O125        O  0.65515623  0.79503056  0.25253381    -0.73470
O126        O  0.65923086  0.86984866  0.27989503    -0.73500
O127        O  0.69481258  0.83505073  0.25189636    -0.73560
O128        O  0.62035694  0.82997335  0.28057215    -0.73600
O129        O  0.63661182  0.81453939  0.32099135    -0.73540
O130        O  0.71151728  0.81976182  0.29258555    -0.73510
O131        O  0.67598869  0.85437178  0.32046808    -0.73490
O132        O  0.67104708  0.77915217  0.29329460    -0.73560
Ni133      Ni  0.65690282  0.83300138  0.26478742     1.25410
Ni134      Ni  0.67454141  0.81630365  0.30818827     1.25360
C135        C  0.66246247  0.77472692  0.26837833     0.88710
C136        C  0.66645685  0.87422425  0.30519223     0.88640
C137        C  0.71544842  0.82772225  0.26738744     0.88670
C138        C  0.61605703  0.82293037  0.30593319     0.88840
O139        O  0.76221706  0.68487945  0.25271229    -0.73470
O140        O  0.83783506  0.68955504  0.28037477    -0.73500
O141        O  0.79883229  0.65026497  0.28136825    -0.73560
O142        O  0.80211997  0.72473514  0.25166690    -0.73600
O143        O  0.78720412  0.74077426  0.29206864    -0.73540
O144        O  0.78444747  0.66602950  0.32183922    -0.73510
O145        O  0.82277741  0.70551540  0.32042588    -0.73490
O146        O  0.74698032  0.69989598  0.29338691    -0.73560
Ni147      Ni  0.80064560  0.68687403  0.26504845     1.25410
Ni148      Ni  0.78455997  0.70378566  0.30819770     1.25360
C149        C  0.74209191  0.69197411  0.26842941     0.88710
C150        C  0.84260515  0.69582757  0.30581265     0.88640
C151        C  0.79436780  0.64629103  0.30733033     0.88670
C152        C  0.79511763  0.74508040  0.26697930     0.88840
O153        O  0.65441617  0.72567955  0.27332503    -0.73470
O154        O  0.65483208  0.65104526  0.24471193    -0.73500
O155        O  0.69272403  0.68476649  0.27289412    -0.73560
O156        O  0.61720179  0.69151793  0.24534709    -0.73600
O157        O  0.63280815  0.70630696  0.20451825    -0.73540
O158        O  0.70841015  0.70091391  0.23239547    -0.73510
O159        O  0.67124400  0.66698116  0.20480101    -0.73490
O160        O  0.66880036  0.74168408  0.23227898    -0.73560
Ni161      Ni  0.65433578  0.68774805  0.26056013     1.25410
Ni162      Ni  0.67102401  0.70469052  0.21720619     1.25360
C163        C  0.66168269  0.74600731  0.25747045     0.88710
C164        C  0.66095510  0.64692279  0.21920402     0.88640
C165        C  0.71304979  0.69223355  0.25730696     0.88670
C166        C  0.61265475  0.69756674  0.21968309     0.88840
C167        C  0.80785368  0.54055228  0.33142888     0.04090
C168        C  0.81470339  0.51317331  0.34021246    -0.12060
C169        C  0.80677754  0.49059260  0.32301013     0.01590
C170        C  0.79415899  0.49589977  0.29722819    -0.10590
C171        C  0.78632922  0.52257913  0.28991423     0.04080
C172        C  0.79211756  0.54442012  0.30717802    -0.10010
H173        H  0.82536267  0.50953654  0.35981171     0.09670
H174        H  0.78761744  0.47880282  0.28411046     0.07200
H175        H  0.78521507  0.56501748  0.30092261     0.07050
C176        C  0.66665908  0.54086811  0.18178046     0.04090
C177        C  0.65751455  0.51275556  0.18028112    -0.12060
C178        C  0.67665311  0.49112842  0.18667230     0.01590
C179        C  0.70394029  0.49800308  0.19464253    -0.10590
C180        C  0.71169138  0.52546690  0.19861485     0.04080
C181        C  0.69411664  0.54663732  0.19026437    -0.10010
H182        H  0.63589980  0.50791171  0.17553890     0.09670
H183        H  0.71813436  0.48174885  0.20147994     0.07200
H184        H  0.70043131  0.56785650  0.19471153     0.07050
C185        C  0.95093885  0.83160023  0.18581126     0.04090
C186        C  0.97701136  0.84299684  0.17736593    -0.12060
C187        C  0.00180299  0.83302635  0.19039866     0.01590
C188        C  0.99996202  0.81331330  0.21170425    -0.10590
C189        C  0.97455515  0.80193618  0.21884270     0.04080
C190        C  0.95036109  0.81044987  0.20583054    -0.10010
H191        H  0.97795937  0.85895850  0.16138817     0.09670
H192        H  0.01872993  0.80573922  0.22204504     0.07200
H193        H  0.93062227  0.80153998  0.21256016     0.07050
C194        C  0.00218825  0.69637705  0.33975491     0.04090
C195        C  0.97746056  0.68405680  0.35049373    -0.12060
C196        C  0.95148637  0.69124286  0.33798418     0.01590
C197        C  0.95073954  0.71105424  0.31661679    -0.10590
C198        C  0.97502590  0.72176139  0.30582414     0.04080
C199        C  0.00054543  0.71400644  0.31661746    -0.10010
H200        H  0.97837973  0.66963057  0.36787034     0.09670
H201        H  0.93097265  0.71728146  0.30730223     0.07200
H202        H  0.01934104  0.72332245  0.30802296     0.07050
C203        C  0.16902056  0.81049979  0.98936789     0.04090
C204        C  0.16945349  0.78150261  0.98742954    -0.12060
C205        C  0.17674647  0.76502719  0.01030081     0.01590
C206        C  0.17742988  0.77695395  0.03660820    -0.10590
C207        C  0.17265052  0.80555109  0.03960910     0.04080
C208        C  0.16937230  0.82262716  0.01583726    -0.10010
H209        H  0.16930136  0.77200898  0.96711453     0.09670
H210        H  0.18294228  0.76435592  0.05460874     0.07200
H211        H  0.16843203  0.84499673  0.01787185     0.07050
C212        C  0.28372149  0.68500181  0.04283724     0.04090
C213        C  0.25573910  0.67995393  0.03576997    -0.12060
C214        C  0.24766081  0.67524332  0.00815436     0.01590
C215        C  0.26871321  0.66941639  0.98911434    -0.10590
C216        C  0.29640445  0.67753630  0.99472165     0.04080
C217        C  0.30407659  0.68503241  0.02192942    -0.10010
H218        H  0.24007775  0.68424740  0.05119108     0.09670
H219        H  0.26293113  0.66402800  0.96807580     0.07200
H220        H  0.32500567  0.69254203  0.02633082     0.07050
O221        O  0.24974043  0.79681433  0.32627535    -0.73470
O222        O  0.32495192  0.82481327  0.32231602    -0.73500
O223        O  0.29055525  0.79542428  0.28714353    -0.73560
O224        O  0.28547720  0.82593997  0.36021231    -0.73600
O225        O  0.30028462  0.78597237  0.37811108    -0.73540
O226        O  0.30548521  0.75513688  0.30490382    -0.73510
O227        O  0.34027676  0.78499099  0.33996065    -0.73490
O228        O  0.26511843  0.75644248  0.34346195    -0.73560
Ni229      Ni  0.28697999  0.81200448  0.32317943     1.25410
Ni230      Ni  0.30331012  0.76917388  0.34217683     1.25360
C231        C  0.24501310  0.77203845  0.33527618     0.88710
C232        C  0.34490167  0.81037197  0.33272142     0.88640
C233        C  0.29846638  0.77022674  0.28393476     0.88670
C234        C  0.29407332  0.81166958  0.38116660     0.88840
O235        O  0.21036932  0.73669202  0.32777292    -0.73470
O236        O  0.13371492  0.71132260  0.32655417    -0.73500
O237        O  0.16802443  0.73817796  0.28915838    -0.73560
O238        O  0.17542593  0.70943688  0.36385708    -0.73600
O239        O  0.16133989  0.75012154  0.38011325    -0.73540
O240        O  0.15554035  0.77948243  0.30517017    -0.73510
O241        O  0.12061916  0.75232403  0.34196115    -0.73490
O242        O  0.19661223  0.77760922  0.34386577    -0.73560
Ni243      Ni  0.17244871  0.72254962  0.32610310     1.25410
Ni244      Ni  0.15810076  0.76634414  0.34328591     1.25360
C245        C  0.21600788  0.76147166  0.33586752     0.88710
C246        C  0.11457182  0.72712199  0.33592033     0.88640
C247        C  0.16114925  0.76361372  0.28475331     0.88670
C248        C  0.16799683  0.72453730  0.38418177     0.88840
O249        O  0.21055614  0.79994034  0.21295091    -0.73470
O250        O  0.13428633  0.82629487  0.21111850    -0.73500
O251        O  0.16782714  0.80015422  0.25083231    -0.73560
O252        O  0.17664181  0.82624607  0.17525966    -0.73600
O253        O  0.16066664  0.78529926  0.16044304    -0.73540
O254        O  0.15497697  0.75834483  0.23572381    -0.73510
O255        O  0.12010492  0.78436837  0.19813395    -0.73490
O256        O  0.19550763  0.75898574  0.19733112    -0.73560
Ni257      Ni  0.17284649  0.81459897  0.21335053     1.25410
Ni258      Ni  0.15730047  0.77032894  0.19748319     1.25360
C259        C  0.21547102  0.77505814  0.20494617     0.88710
C260        C  0.11487773  0.81006212  0.20211584     0.88640
C261        C  0.16087844  0.77472591  0.25577579     0.88670
C262        C  0.16912638  0.81021703  0.15549923     0.88840
O263        O  0.24726645  0.73822233  0.21219535    -0.73470
O264        O  0.31961428  0.70505991  0.21297772    -0.73500
O265        O  0.28881563  0.73415907  0.25098691    -0.73560
O266        O  0.27925229  0.71026544  0.17511454    -0.73600
O267        O  0.29732820  0.75058452  0.16062521    -0.73540
O268        O  0.30673872  0.77429291  0.23562142    -0.73510
O269        O  0.33823025  0.74487628  0.19805093    -0.73490
O270        O  0.26512345  0.77878990  0.19792975    -0.73560
Ni271      Ni  0.28304413  0.72060377  0.21353079     1.25410
Ni272      Ni  0.30253850  0.76358423  0.19764862     1.25360
C273        C  0.24408823  0.76374608  0.20511650     0.88710
C274        C  0.34046688  0.71869717  0.20341663     0.88640
C275        C  0.29850914  0.75868987  0.25561885     0.88670
C276        C  0.28810853  0.72614716  0.15543986     0.88840
C277        C  0.45761154  0.84274830  0.33226401     0.04090
C278        C  0.45937284  0.82336464  0.31102499    -0.12060
C279        C  0.47704951  0.80036781  0.31456893     0.01590
C280        C  0.49662471  0.80152577  0.33641244    -0.10590
C281        C  0.50359074  0.82752557  0.34719822     0.04080
C282        C  0.48189509  0.84722972  0.34851410    -0.10010
H283        H  0.44414023  0.82438621  0.29438937     0.09670
H284        H  0.50998728  0.78418663  0.34141196     0.07200
H285        H  0.48389978  0.86534887  0.36149031     0.07050
C286        C  0.44969243  0.68460215  0.19953050     0.04090
C287        C  0.47446028  0.68018012  0.18432363    -0.12060
C288        C  0.49899853  0.69499885  0.19198533     0.01590
C289        C  0.49712708  0.71596265  0.21159850    -0.10590
C290        C  0.47412908  0.71723749  0.22888036     0.04080
C291        C  0.45130909  0.70009912  0.22379300    -0.10010
H292        H  0.47464063  0.66575797  0.16726199     0.09670
H293        H  0.51514776  0.72910795  0.21568758     0.07200
H294        H  0.43340161  0.70110510  0.23729859     0.07050
O295        O  0.22927419  0.77390570  0.82889818    -0.73470
O296        O  0.20617583  0.85041176  0.82459159    -0.73500
O297        O  0.23162669  0.81450160  0.78999149    -0.73560
O298        O  0.20239281  0.81030840  0.86261940    -0.73600
O299        O  0.24293890  0.82374861  0.88047876    -0.73540
O300        O  0.27351189  0.82729779  0.80615807    -0.73510
O301        O  0.24740504  0.86314114  0.84174992    -0.73490
O302        O  0.27063862  0.78762958  0.84565437    -0.73560
Ni303      Ni  0.21601989  0.81167639  0.82589036     1.25410
Ni304      Ni  0.26017770  0.82581659  0.84414693     1.25360
C305        C  0.25427446  0.76844954  0.83706230     0.88710
C306        C  0.22259145  0.86934658  0.83406032     0.88640
C307        C  0.25708104  0.82120326  0.78583027     0.88670
C308        C  0.21666230  0.81869026  0.88338837     0.88840
O309        O  0.29084434  0.81550383  0.74944742    -0.73470
O310        O  0.30812242  0.81656906  0.67091776    -0.73500
O311        O  0.31049156  0.85381110  0.71192266    -0.73560
O312        O  0.28838143  0.77646921  0.70804355    -0.73600
O313        O  0.24452392  0.78932537  0.69928238    -0.73540
O314        O  0.26679009  0.86588767  0.70158215    -0.73510
O315        O  0.26407850  0.82775851  0.66184795    -0.73490
O316        O  0.24730988  0.82815486  0.73867182    -0.73560
Ni317      Ni  0.30104912  0.81488237  0.71050075     1.25410
Ni318      Ni  0.25422078  0.82807474  0.70000751     1.25360
C319        C  0.26601492  0.82202925  0.75674833     0.88710
C320        C  0.28916380  0.82468954  0.65362995     0.88640
C321        C  0.29236211  0.87254723  0.70613000     0.88670
C322        C  0.26256251  0.77022066  0.70375698     0.88840
O323        O  0.28969969  0.69338620  0.78943600    -0.73470
O324        O  0.31936290  0.70326564  0.86346512    -0.73500
O325        O  0.31891488  0.66123803  0.82804230    -0.73560
O326        O  0.28966847  0.73563139  0.82713600    -0.73600
O327        O  0.24931379  0.71986190  0.84413986    -0.73540
O328        O  0.27804726  0.64595795  0.84385386    -0.73510
O329        O  0.27911935  0.68720637  0.88041801    -0.73490
O330        O  0.24882659  0.67907708  0.80624833    -0.73560
Ni331      Ni  0.30572754  0.69896371  0.82609393     1.25410
Ni332      Ni  0.26239060  0.68241772  0.84412790     1.25360
C333        C  0.26424595  0.68565948  0.78549948     0.88710
C334        C  0.30439091  0.69570199  0.88405412     0.88640
C335        C  0.30392399  0.64187359  0.83895749     0.88670
C336        C  0.26487430  0.73994358  0.83603602     0.88840
O337        O  0.26808150  0.67950003  0.73630398    -0.73470
O338        O  0.23998899  0.68635687  0.66132503    -0.73500
O339        O  0.26854346  0.72094533  0.69748917    -0.73560
O340        O  0.23893775  0.64597679  0.69889556    -0.73600
O341        O  0.19844281  0.66158707  0.71396630    -0.73540
O342        O  0.22782371  0.73594746  0.71327552    -0.73510
O343        O  0.19986563  0.70214324  0.67689738    -0.73490
O344        O  0.22720064  0.69385772  0.75222859    -0.73560
Ni345      Ni  0.25544053  0.68271184  0.69815862     1.25410
Ni346      Ni  0.21209310  0.69904839  0.71492321     1.25360
C347        C  0.25243795  0.68585950  0.75670208     0.88710
C348        C  0.21442154  0.69291948  0.65682848     0.88640
C349        C  0.25269847  0.74091875  0.70485909     0.88670
C350        C  0.21272263  0.64216679  0.70317963     0.88840
C351        C  0.29542975  0.84928900  0.54193191     0.04090
C352        C  0.30793652  0.85528585  0.51595721    -0.12060
C353        C  0.29242271  0.85011719  0.49115351     0.01590
C354        C  0.26520504  0.83945795  0.49292756    -0.10590
C355        C  0.25398955  0.83219309  0.51828459     0.04080
C356        C  0.26871744  0.83734875  0.54238181    -0.10010
H357        H  0.32916307  0.86307200  0.51502112     0.09670
H358        H  0.25405513  0.83320658  0.47426765     0.07200
H359        H  0.25991092  0.83004181  0.56183324     0.07050
C360        C  0.17085919  0.69738799  0.54795123     0.04090
C361        C  0.16622300  0.68479203  0.52174328    -0.12060
C362        C  0.16544979  0.70188015  0.49754719     0.01590
C363        C  0.17013459  0.73043404  0.49985835    -0.10590
C364        C  0.17661632  0.74210854  0.52517618     0.04080
C365        C  0.17536882  0.72612760  0.54920032    -0.10010
H366        H  0.16393786  0.66246643  0.52018620     0.09670
H367        H  0.17199863  0.74322541  0.48123075     0.07200
H368        H  0.18181131  0.73549683  0.56864941     0.07050
O369        O  0.80543523  0.22124183  0.76952225    -0.73470
O370        O  0.79378906  0.19197924  0.84287422    -0.73500
O371        O  0.76206428  0.22151485  0.80578749    -0.73560
O372        O  0.83689588  0.19221500  0.80795516    -0.73600
O373        O  0.85221883  0.23224589  0.82460569    -0.73540
O374        O  0.77822498  0.26134770  0.82318907    -0.73510
O375        O  0.81012602  0.23163969  0.86043503    -0.73490
O376        O  0.82015115  0.26169914  0.78658622    -0.73560
Ni377      Ni  0.79895151  0.20539685  0.80574023     1.25410
Ni378      Ni  0.81573091  0.24815415  0.82425992     1.25360
C379        C  0.81386250  0.24635275  0.76582122     0.88710
C380        C  0.80134682  0.20653143  0.86369463     0.88640
C381        C  0.75802914  0.24643298  0.81406679     0.88670
C382        C  0.85675469  0.20685540  0.81850965     0.88840
O383        O  0.68778154  0.28833888  0.76424803    -0.73470
O384        O  0.69594046  0.31412261  0.83925648    -0.73500
O385        O  0.72797614  0.28419210  0.80427056    -0.73560
O386        O  0.65621416  0.31898876  0.80039433    -0.73600
O387        O  0.63664745  0.27964289  0.81577676    -0.73540
O388        O  0.70855171  0.24462518  0.81938577    -0.73510
O389        O  0.67618920  0.27500872  0.85435969    -0.73490
O390        O  0.66882302  0.24880742  0.78001247    -0.73560
Ni391      Ni  0.69270062  0.30272449  0.80127635     1.25410
Ni392      Ni  0.67182289  0.26060572  0.81778770     1.25360
C393        C  0.67802257  0.26381806  0.75996340     0.88710
C394        C  0.68599229  0.29933370  0.85917471     0.88640
C395        C  0.73012773  0.25885754  0.81246525     0.88670
C396        C  0.63507648  0.30569651  0.80993165     0.88840
O397        O  0.80735977  0.28225162  0.73117992    -0.73470
O398        O  0.80326799  0.30556763  0.65417912    -0.73500
O399        O  0.76735978  0.28051376  0.69020251    -0.73560
O400        O  0.84218363  0.30857689  0.69405631    -0.73600
O401        O  0.85813409  0.26738712  0.68089773    -0.73540
O402        O  0.78270090  0.23870952  0.67820907    -0.73510
O403        O  0.81876243  0.26406663  0.64196910    -0.73490
O404        O  0.82286445  0.24091291  0.71792991    -0.73560
Ni405      Ni  0.80441486  0.29561679  0.69305235     1.25410
Ni406      Ni  0.82116802  0.25126266  0.67946268     1.25360
C407        C  0.81528270  0.25735581  0.73707063     0.88710
C408        C  0.81166707  0.28888469  0.63543076     0.88640
C409        C  0.76255221  0.25527453  0.68341084     0.88670
C410        C  0.86216001  0.29330092  0.68590317     0.88840
O411        O  0.68520370  0.22634044  0.72904364    -0.73470
O412        O  0.68943915  0.19501954  0.65601264    -0.73500
O413        O  0.72668772  0.22123471  0.69084237    -0.73560
O414        O  0.64925152  0.20008384  0.69383099    -0.73600
O415        O  0.63728020  0.24079063  0.67560604    -0.73540
O416        O  0.71449357  0.26248293  0.67311798    -0.73510
O417        O  0.67739528  0.23617139  0.63798426    -0.73490
O418        O  0.67364670  0.26750444  0.71071780    -0.73560
Ni419      Ni  0.68822101  0.20927953  0.69316137     1.25410
Ni420      Ni  0.67539542  0.25320266  0.67370844     1.25360
C421        C  0.67872854  0.25200335  0.73189316     0.88710
C422        C  0.68221433  0.21018322  0.63514953     0.88640
C423        C  0.73326710  0.24563708  0.68204799     0.88670
C424        C  0.63042727  0.21630934  0.68398226     0.88840
C425        C  0.52723973  0.33298012  0.82667410     0.04090
C426        C  0.52495661  0.30566522  0.81736965    -0.12060
C427        C  0.49911407  0.29350793  0.81297253     0.01590
C428        C  0.47510732  0.30747775  0.81990887    -0.10590
C429        C  0.47650130  0.33499579  0.82893992     0.04080
C430        C  0.50281908  0.34824922  0.83222154    -0.10010
H431        H  0.54351272  0.29451705  0.81123757     0.09670
H432        H  0.45500792  0.29803767  0.81507607     0.07200
H433        H  0.50419491  0.36984515  0.83817356     0.07050
C434        C  0.46740303  0.18414243  0.69786691     0.04090
C435        C  0.49152519  0.17913571  0.68211824    -0.12060
C436        C  0.51769914  0.18785807  0.69277711     0.01590
C437        C  0.51925787  0.20127963  0.71835260    -0.10590
C438        C  0.49522044  0.20735799  0.73270827     0.04080
C439        C  0.46961399  0.19835200  0.72293377    -0.10010
H440        H  0.48991864  0.16942452  0.66200957     0.09670
H441        H  0.53909779  0.20945804  0.72582224     0.07200
H442        H  0.45093996  0.20393628  0.73414097     0.07050
C443        C  0.16983857  0.02920951  0.82731395     0.04090
C444        C  0.17591637  0.00407611  0.84139138    -0.12060
C445        C  0.18529426  0.98119534  0.82601264     0.01590
C446        C  0.19046352  0.98424396  0.79756971    -0.10590
C447        C  0.18529078  0.00932640  0.78396993     0.04080
C448        C  0.17249009  0.03050512  0.79832176    -0.10010
H449        H  0.17430044  0.00261163  0.86375671     0.09670
H450        H  0.20066571  0.96765844  0.78656169     0.07200
H451        H  0.16868429  0.04989634  0.78727205     0.07050
C452        C  0.30526998  0.98864154  0.70042505     0.04090
C453        C  0.27673598  0.99258258  0.70511238    -0.12060
C454        C  0.26418402  0.01837515  0.70027189     0.01590
C455        C  0.28092515  0.04009408  0.69037919    -0.10590
C456        C  0.31005224  0.03825519  0.69291606     0.04080
C457        C  0.32255857  0.01193143  0.69605213    -0.10010
H458        H  0.26434063  0.97506226  0.71234286     0.09670
H459        H  0.27164979  0.06008650  0.68582223     0.07200
H460        H  0.34505359  0.00983649  0.69616503     0.07050
C461        C  0.01668530  0.17140868  0.81945902     0.04090
C462        C  0.99207666  0.16410711  0.83400675    -0.12060
C463        C  0.96575610  0.17006766  0.82147082     0.01590
C464        C  0.96460885  0.18203454  0.79486711    -0.10590
C465        C  0.98873037  0.19093750  0.78210775     0.04080
C466        C  0.01435685  0.18607793  0.79435521    -0.10010
H467        H  0.99331438  0.15471034  0.85449338     0.09670
H468        H  0.94466959  0.18781450  0.78563955     0.07200
H469        H  0.03291235  0.19403338  0.78411225     0.07050
C470        C  0.02360971  0.31277354  0.68316245     0.04090
C471        C  0.99894151  0.32687872  0.67488533    -0.12060
C472        C  0.97306364  0.31256983  0.67647340     0.01590
C473        C  0.97219442  0.28526314  0.68658861    -0.10590
C474        C  0.99608778  0.27249453  0.69630696     0.04080
C475        C  0.02171917  0.28559092  0.69364182    -0.10010
H476        H  0.99977816  0.34838947  0.66808886     0.09670
H477        H  0.95221825  0.27497053  0.68986600     0.07200
H478        H  0.04004759  0.27558194  0.70252707     0.07050
O479        O  0.26708521  0.31829061  0.80359001    -0.73470
O480        O  0.34589185  0.31996560  0.82218205    -0.73500
O481        O  0.30410577  0.35511860  0.82749538    -0.73560
O482        O  0.30990943  0.28164548  0.79915899    -0.73600
O483        O  0.31856055  0.29838399  0.75676582    -0.73540
O484        O  0.31391343  0.37273357  0.78585546    -0.73510
O485        O  0.35488995  0.33652578  0.78017353    -0.73490
O486        O  0.27745651  0.33558034  0.76178392    -0.73560
Ni487      Ni  0.30627999  0.31798670  0.81451748     1.25410
Ni488      Ni  0.31645346  0.33633697  0.76962663     1.25360
C489        C  0.25956256  0.32628724  0.77911294     0.88710
C490        C  0.36314200  0.33090032  0.80488970     0.88640
C491        C  0.31033550  0.37594958  0.81202407     0.88670
C492        C  0.31459035  0.27772246  0.77339841     0.88840
O493        O  0.22734086  0.19721532  0.80378974    -0.73470
O494        O  0.14884111  0.19682002  0.82291050    -0.73500
O495        O  0.19007164  0.15992145  0.82775419    -0.73560
O496        O  0.18507036  0.23481931  0.79927734    -0.73600
O497        O  0.17568160  0.21923984  0.75679397    -0.73540
O498        O  0.17868792  0.14430855  0.78580967    -0.73510
O499        O  0.13881165  0.18229431  0.78048523    -0.73490
O500        O  0.21600125  0.18115095  0.76192470    -0.73560
Ni501      Ni  0.18839072  0.19788594  0.81489236     1.25410
Ni502      Ni  0.17703016  0.18119539  0.76981301     1.25360
C503        C  0.23433261  0.18999775  0.77922057     0.88710
C504        C  0.13093365  0.18774375  0.80512702     0.88640
C505        C  0.18270785  0.13992768  0.81188521     0.88670
C506        C  0.18003181  0.23942684  0.77341573     0.88840
O507        O  0.20951250  0.32817370  0.78452493    -0.73470
O508        O  0.13564438  0.32287705  0.75153210    -0.73500
O509        O  0.17096570  0.28717968  0.77962677    -0.73560
O510        O  0.17331708  0.36334654  0.75737463    -0.73600
O511        O  0.19246239  0.35296310  0.71714256    -0.73540
O512        O  0.18834466  0.27509382  0.73878743    -0.73510
O513        O  0.15464167  0.31248158  0.71114779    -0.73490
O514        O  0.22718196  0.31660658  0.74364167    -0.73560
Ni515      Ni  0.17172102  0.32569721  0.76972632     1.25410
Ni516      Ni  0.19137159  0.31366691  0.72632844     1.25360
C517        C  0.23057217  0.32344657  0.76901720     0.88710
C518        C  0.13322556  0.31872251  0.72529062     0.88640
C519        C  0.17950116  0.26851637  0.76316189     0.88670
C520        C  0.18231165  0.37105469  0.73358658     0.88840
O521        O  0.30535882  0.24273720  0.73916576    -0.73470
O522        O  0.30198275  0.16574036  0.71781202    -0.73500
O523        O  0.26654306  0.20077453  0.74387196    -0.73560
O524        O  0.33921039  0.20606676  0.71231499    -0.73600
O525        O  0.35792346  0.19366271  0.75305918    -0.73540
O526        O  0.28443540  0.18856391  0.78508604    -0.73510
O527        O  0.32049644  0.15365370  0.75859499    -0.73490
O528        O  0.32321231  0.22972344  0.78016314    -0.73560
Ni529      Ni  0.30244535  0.20451844  0.72699359     1.25410
Ni530      Ni  0.32209169  0.19117501  0.77077905     1.25360
C531        C  0.31476473  0.24879716  0.76343304     0.88710
C532        C  0.31305451  0.14733886  0.73389004     0.88640
C533        C  0.26326065  0.19329015  0.76923356     0.88670
C534        C  0.36010954  0.19774901  0.72675868     0.88840
C535        C  0.32163831  0.53582315  0.85592276     0.04090
C536        C  0.33121193  0.50841074  0.86092893    -0.12060
C537        C  0.31589803  0.48596198  0.84934209     0.01590
C538        C  0.29251305  0.49133890  0.83265101    -0.10590
C539        C  0.28447681  0.51832290  0.82700883     0.04080
C540        C  0.29798316  0.54020789  0.83934412    -0.10010
H541        H  0.35016524  0.50472525  0.87278122     0.09670
H542        H  0.28201927  0.47449008  0.82185275     0.07200
H543        H  0.29142959  0.56115456  0.83392092     0.07050
C544        C  0.18429714  0.53766723  0.69682869     0.04090
C545        C  0.17436994  0.51004040  0.69294344    -0.12060
C546        C  0.18653893  0.48820207  0.70903657     0.01590
C547        C  0.20887737  0.49439559  0.72688761    -0.10590
C548        C  0.21628950  0.52163729  0.73205063     0.04080
C549        C  0.20438679  0.54298955  0.71728403    -0.10010
H550        H  0.15751183  0.50582258  0.67845223     0.09670
H551        H  0.21871418  0.47801653  0.73912371     0.07200
H552        H  0.21102754  0.56408762  0.72177184     0.07050
C553        C  0.26735429  0.52402579  0.80268941    -0.04380
C554        C  0.28002304  0.52346308  0.77638467    -0.01500
C555        C  0.26330413  0.52500819  0.75258984     0.03490
C556        C  0.23437392  0.52770735  0.75548931    -0.04380
C557        C  0.22231495  0.53241778  0.78156872    -0.01490
C558        C  0.23888587  0.52996335  0.80547943     0.03490
C559        C  0.31006876  0.52072540  0.77389406     0.38140
C560        C  0.19296575  0.53928979  0.78368293     0.38130
C561        C  0.22669175  0.53252570  0.83276303     0.36550
C562        C  0.27554550  0.52326493  0.72523692     0.36550
N563        N  0.21701932  0.53452407  0.85455460    -0.38270
N564        N  0.28523226  0.52204777  0.70338484    -0.38270
N565        N  0.16966689  0.54522756  0.78532243    -0.37710
N566        N  0.33402300  0.51874569  0.77187180    -0.37720
C567        C  0.17991631  0.40135206  0.72543596    -0.04380
C568        C  0.17479281  0.42143517  0.74617128    -0.01500
C569        C  0.16985497  0.44931054  0.73876494     0.03490
C570        C  0.17567192  0.45908547  0.71165690    -0.04380
C571        C  0.18001720  0.43951530  0.69064596    -0.01490
C572        C  0.18080854  0.41064260  0.69724367     0.03490
C573        C  0.17706879  0.41455081  0.77556458     0.38140
C574        C  0.18446713  0.44920758  0.66245529     0.38130
C575        C  0.18268021  0.39088191  0.67488743     0.36550
C576        C  0.16140698  0.46871687  0.75994514     0.36550
N577        N  0.18393857  0.37519551  0.65691906    -0.38270
N578        N  0.15459808  0.48378823  0.77710080    -0.38270
N579        N  0.18791101  0.45703321  0.63994417    -0.37710
N580        N  0.17932567  0.40930121  0.79897972    -0.37720
C581        C  0.31550726  0.40360111  0.82526688    -0.04380
C582        C  0.33659519  0.42181472  0.81498426    -0.01500
C583        C  0.34133270  0.44789952  0.82738162     0.03490
C584        C  0.32463747  0.45650079  0.84952458    -0.04380
C585        C  0.30642170  0.43711879  0.86213716    -0.01490
C586        C  0.30138690  0.41102520  0.84986814     0.03490
C587        C  0.35315901  0.41441843  0.79119315     0.38140
C588        C  0.29064401  0.44544863  0.88618222     0.38130
C589        C  0.28007271  0.39296152  0.86160994     0.36550
C590        C  0.36176002  0.46707960  0.81582195     0.36550
N591        N  0.26301486  0.37864963  0.87101522    -0.38270
N592        N  0.37815150  0.48228581  0.80664399    -0.38270
N593        N  0.27807217  0.45215189  0.90533809    -0.37710
N594        N  0.36633137  0.40906381  0.77201079    -0.37720
C595        C  0.10566826  0.32233127  0.71053221    -0.04380
C596        C  0.10007190  0.30885397  0.68491639    -0.01500
C597        C  0.07369172  0.31145477  0.67191879     0.03490
C598        C  0.05191619  0.32542781  0.68528763    -0.04380
C599        C  0.05837765  0.34193386  0.70845469    -0.01490
C600        C  0.08525345  0.34078428  0.72082184     0.03490
C601        C  0.12042363  0.29066360  0.67252628     0.38140
C602        C  0.03685506  0.35884656  0.72056261     0.38130
C603        C  0.09165371  0.35877286  0.74402407     0.36550
C604        C  0.06768555  0.29698487  0.64623257     0.36550
N605        N  0.09675114  0.37326069  0.76242804    -0.38270
N606        N  0.06281988  0.28543641  0.62579735    -0.38270
N607        N  0.01989562  0.37260393  0.73027004    -0.37710
N608        N  0.13649596  0.27606448  0.66253416    -0.37720
C609        C  0.04590394  0.16415728  0.82738252    -0.04380
C610        C  0.06112405  0.18210637  0.84494891    -0.01500
C611        C  0.08942028  0.18895968  0.83896970     0.03490
C612        C  0.10125663  0.18076963  0.81329715    -0.04380
C613        C  0.08488840  0.16309858  0.79605882    -0.01490
C614        C  0.06047993  0.15056745  0.80634271     0.03490
C615        C  0.04708021  0.19463011  0.86810640     0.38140
C616        C  0.08969408  0.16147401  0.76642813     0.38130
C617        C  0.04646260  0.12884994  0.79066790     0.36550
C618        C  0.10494687  0.20641875  0.85801610     0.36550
N619        N  0.03523394  0.11159323  0.77819294    -0.38270
N620        N  0.11723815  0.22033239  0.87336875    -0.38270
N621        N  0.09302607  0.16045802  0.74270130    -0.37710
N622        N  0.03585756  0.20457137  0.88665216    -0.37720
C623        C  0.98737663  0.21129285  0.75959521    -0.04380
C624        C  0.98773729  0.20275616  0.73177207    -0.01500
C625        C  0.99038882  0.22281929  0.71056960     0.03490
C626        C  0.99297388  0.25101084  0.71761113    -0.04380
C627        C  0.99173734  0.25951590  0.74548557    -0.01490
C628        C  0.98886984  0.23962210  0.76649209     0.03490
C629        C  0.98607942  0.17345563  0.72521516     0.38140
C630        C  0.99381586  0.28875925  0.75261029     0.38130
C631        C  0.98846164  0.24826292  0.79528953     0.36550
C632        C  0.99092962  0.21462705  0.68173936     0.36550
N633        N  0.98834859  0.25539640  0.81813055    -0.38270
N634        N  0.99133402  0.20815951  0.65869562    -0.38270
N635        N  0.99559729  0.31198237  0.75839990    -0.37710
N636        N  0.98475495  0.15003586  0.72011425    -0.37720
C637        C  0.32377758  0.06415207  0.70252390    -0.04380
C638        C  0.32519514  0.08710734  0.68426808    -0.01500
C639        C  0.32331847  0.11436575  0.69458090     0.03490
C640        C  0.31890063  0.11877052  0.72334270    -0.04380
C641        C  0.32147789  0.09573393  0.74188359    -0.01490
C642        C  0.32447126  0.06867023  0.73144796     0.03490
C643        C  0.32657301  0.08238251  0.65465067     0.38140
C644        C  0.31865519  0.09909359  0.77163501     0.38130
C645        C  0.32461120  0.04511834  0.75058224     0.36550
C646        C  0.32601797  0.13764277  0.67536689     0.36550
N647        N  0.32454250  0.02650787  0.76600407    -0.38270
N648        N  0.32831648  0.15615623  0.65999057    -0.38270
N649        N  0.31639561  0.10155285  0.79536967    -0.37710
N650        N  0.32764070  0.07855371  0.63102403    -0.37720
C651        C  0.16528876  0.05642119  0.84104173    -0.04380
C652        C  0.14377640  0.07245909  0.82926791    -0.01500
C653        C  0.15075042  0.09823438  0.81699458     0.03490
C654        C  0.17611634  0.11189884  0.82420119    -0.04380
C655        C  0.19388866  0.09882200  0.84402341    -0.01490
C656        C  0.18897976  0.07059117  0.85161166     0.03490
C657        C  0.11707945  0.05922316  0.82332406     0.38140
C658        C  0.21882207  0.11293854  0.85387714     0.38130
C659        C  0.20961349  0.05528657  0.86763559     0.36550
C660        C  0.13417238  0.10736830  0.79350561     0.36550
N661        N  0.22607518  0.04303567  0.88046337    -0.38270
N662        N  0.12156407  0.11235885  0.77354337    -0.38270
N663        N  0.23875577  0.12418254  0.86176472    -0.37710
N664        N  0.09581114  0.04866114  0.81858416    -0.37720
C665        C  0.19982058  0.01608483  0.75769893    -0.04380
C666        C  0.19678360  0.99921439  0.73405805    -0.01500
C667        C  0.21538797  0.00266278  0.71171369     0.03490
C668        C  0.23628250  0.02358932  0.71268149    -0.04380
C669        C  0.23444505  0.04411972  0.73330166    -0.01490
C670        C  0.21875823  0.03877858  0.75702286     0.03490
C671        C  0.17576974  0.97740317  0.73346317     0.38140
C672        C  0.24870518  0.07068348  0.73103099     0.38130
C673        C  0.22518542  0.05487027  0.78165173     0.36550
C674        C  0.21404915  0.98397379  0.68834107     0.36550
N675        N  0.23121912  0.06770637  0.80097235    -0.38270
N676        N  0.21312136  0.96899068  0.66973564    -0.38270
N677        N  0.25877980  0.09255180  0.72948430    -0.37710
N678        N  0.15902772  0.95995288  0.73308949    -0.37720
C679        C  0.43853899  0.17707703  0.68950181    -0.04380
C680        C  0.42269274  0.19900287  0.67803323    -0.01500
C681        C  0.39660943  0.20569652  0.68959521     0.03490
C682        C  0.38623278  0.18985063  0.71228654    -0.04380
C683        C  0.39978832  0.16456337  0.71951471    -0.01490
C684        C  0.42524699  0.15765985  0.70701741     0.03490
C685        C  0.43502378  0.21662395  0.65680230     0.38140
C686        C  0.38846217  0.14593727  0.74049783     0.38130
C687        C  0.44036137  0.13298416  0.71581342     0.36550
C688        C  0.38170075  0.22992236  0.67938621     0.36550
N689        N  0.45251817  0.11339139  0.72287626    -0.38270
N690        N  0.36979391  0.24921782  0.67112312    -0.38270
N691        N  0.38009155  0.13092833  0.75745214    -0.37710
N692        N  0.44485506  0.23060467  0.63976452    -0.37720
C693        C  0.44922669  0.34927743  0.82890818    -0.04380
C694        C  0.43915657  0.35795159  0.80279668    -0.01500
C695        C  0.41159958  0.35126954  0.79448128     0.03490
C696        C  0.39257731  0.33874949  0.81371626    -0.04380
C697        C  0.40169569  0.33586907  0.84188654    -0.01490
C698        C  0.42995452  0.34083835  0.84917667     0.03490
C699        C  0.45836824  0.37101335  0.78343736     0.38140
C700        C  0.38273213  0.32702927  0.86358399     0.38130
C701        C  0.44010480  0.33485973  0.87704980     0.36550
C702        C  0.40412447  0.35603573  0.76556263     0.36550
N703        N  0.44828872  0.33013083  0.89926686    -0.38270
N704        N  0.39857088  0.35979742  0.74239407    -0.38270
N705        N  0.36776956  0.32005253  0.88108530    -0.37710
N706        N  0.47353456  0.38173329  0.76807003    -0.37720
C707        C  0.49713347  0.27098529  0.79303472    -0.04380
C708        C  0.49953299  0.27782894  0.76463127    -0.01500
C709        C  0.49870390  0.25680104  0.74499698     0.03490
C710        C  0.49597063  0.22889268  0.75379022    -0.04380
C711        C  0.49244854  0.22207624  0.78204385    -0.01490
C712        C  0.49303230  0.24330162  0.80182202     0.03490
C713        C  0.50263466  0.30658658  0.75549834     0.38140
C714        C  0.48803360  0.19339950  0.79054101     0.38130
C715        C  0.48944706  0.23685357  0.83101787     0.36550
C716        C  0.49960301  0.26412905  0.71569645     0.36550
N717        N  0.48649388  0.23181481  0.85434351    -0.38270
N718        N  0.50001819  0.27060782  0.69252175    -0.38270
N719        N  0.48436627  0.17048553  0.79718041    -0.37710
N720        N  0.50516550  0.32935464  0.74791192    -0.37720
C721        C  0.60059453  0.20616649  0.68107047    -0.04380
C722        C  0.59312159  0.17793010  0.68718654    -0.01500
C723        C  0.56486463  0.16932195  0.68600256     0.03490
C724        C  0.54406755  0.18792101  0.67714689    -0.04380
C725        C  0.55206325  0.21367294  0.66574028    -0.01490
C726        C  0.57926175  0.22403639  0.67041789     0.03490
C727        C  0.61372949  0.15765872  0.69609113     0.38140
C728        C  0.53130271  0.23037487  0.65128600     0.38130
C729        C  0.58415260  0.25350138  0.66554965     0.36550
C730        C  0.55658191  0.14193527  0.69595742     0.36550
N731        N  0.58775784  0.27703738  0.66167078    -0.38270
N732        N  0.54986456  0.12014106  0.70392865    -0.38270
N733        N  0.51489894  0.24340622  0.63918824    -0.37710
N734        N  0.62995275  0.14128516  0.70325746    -0.37720
C735        C  0.88981410  0.30637809  0.68018468    -0.04380
C736        C  0.90310170  0.32372678  0.69984921    -0.01500
C737        C  0.93066008  0.33328006  0.69519259     0.03490
C738        C  0.94517828  0.32479808  0.67141310    -0.04380
C739        C  0.92982882  0.31292143  0.64943331    -0.01490
C740        C  0.90257643  0.30270585  0.65407930     0.03490
C741        C  0.88949806  0.32980555  0.72581262     0.38140
C742        C  0.94389298  0.30731717  0.62359060     0.38130
C743        C  0.88834525  0.28752038  0.63224494     0.36550
C744        C  0.94539272  0.34875429  0.71644099     0.36550
N745        N  0.87750422  0.27524461  0.61461824    -0.38270
N746        N  0.95684358  0.36124110  0.73353276    -0.38270
N747        N  0.95519342  0.30282065  0.60302388    -0.37710
N748        N  0.87865233  0.33462498  0.74654907    -0.37720
C749        C  0.60919237  0.32111110  0.81692971    -0.04380
C750        C  0.59610876  0.33933047  0.79765994    -0.01500
C751        C  0.56966004  0.35061237  0.80377675     0.03490
C752        C  0.55629243  0.34347455  0.82887702    -0.04380
C753        C  0.57219368  0.33095820  0.85019223    -0.01490
C754        C  0.59783173  0.31838267  0.84392654     0.03490
C755        C  0.60854795  0.34457564  0.77079842     0.38140
C756        C  0.55972709  0.32699044  0.87729272     0.38130
C757        C  0.61132996  0.30133212  0.86502836     0.36550
C758        C  0.55474271  0.36712179  0.78323591     0.36550
N759        N  0.62114164  0.28742942  0.88221356    -0.38270
N760        N  0.54298554  0.38051670  0.76686621    -0.38270
N761        N  0.54968587  0.32382184  0.89885041    -0.37710
N762        N  0.61848560  0.34876368  0.74934788    -0.37720
C763        C  0.88493617  0.19410566  0.82534213    -0.04380
C764        C  0.90669229  0.21029237  0.83789388    -0.01500
C765        C  0.93216855  0.19785050  0.84590787     0.03490
C766        C  0.93884522  0.17132291  0.83627543    -0.04380
C767        C  0.91705729  0.15416793  0.82654072    -0.01490
C768        C  0.89006128  0.16516404  0.82161548     0.03490
C769        C  0.90417538  0.24008465  0.84157062     0.38140
C770        C  0.92345815  0.12580933  0.81910713     0.38130
C771        C  0.86841344  0.14653969  0.81152591     0.36550
C772        C  0.95336443  0.21362356  0.86075806     0.36550
N773        N  0.85130231  0.13146123  0.80349700    -0.38270
N774        N  0.97017767  0.22604054  0.87288127    -0.38270
N775        N  0.92863340  0.10319310  0.81317131    -0.37710
N776        N  0.90249362  0.26385654  0.84453624    -0.37720
C777        C  0.23319312  0.81000284  0.51936740    -0.04380
C778        C  0.24309007  0.78251510  0.51932049    -0.01500
C779        C  0.22432090  0.76053943  0.52205182     0.03490
C780        C  0.19555862  0.76596735  0.52472363    -0.04380
C781        C  0.18553592  0.79339959  0.52472466    -0.01490
C782        C  0.20457102  0.81565139  0.52220820     0.03490
C783        C  0.27277568  0.77681905  0.51676882     0.38140
C784        C  0.15589364  0.79852447  0.52720490     0.38130
C785        C  0.19496455  0.84413648  0.52261281     0.36550
C786        C  0.23477764  0.73227725  0.52156813     0.36550
N787        N  0.18736457  0.86691234  0.52294353    -0.38270
N788        N  0.24370429  0.71002462  0.52104428    -0.38270
N789        N  0.13220471  0.80254905  0.52917924    -0.37710
N790        N  0.29636106  0.77222725  0.51486550    -0.37720
C791        C  0.19821823  0.61594514  0.69336327    -0.04380
C792        C  0.17125416  0.60791121  0.70310180    -0.01500
C793        C  0.15984814  0.58164930  0.69596287     0.03490
C794        C  0.17589227  0.56279662  0.68090354    -0.04380
C795        C  0.19757610  0.57386598  0.66462405    -0.01490
C796        C  0.20996320  0.59960096  0.67191895     0.03490
C797        C  0.15553188  0.62555967  0.72134724     0.38140
C798        C  0.21081192  0.55588162  0.64478023     0.38130
C799        C  0.23521189  0.60824267  0.65780999     0.36550
C800        C  0.13384686  0.57190138  0.70782026     0.36550
N801        N  0.25557127  0.61462540  0.64661530    -0.38270
N802        N  0.11303430  0.56407983  0.71718954    -0.38270
N803        N  0.22142018  0.54143009  0.62906740    -0.37710
N804        N  0.14272588  0.63957801  0.73578378    -0.37720
C805        C  0.20099996  0.68803937  0.62857433    -0.04380
C806        C  0.17165629  0.69154480  0.62425452    -0.01500
C807        C  0.15975497  0.68895490  0.59740890     0.03490
C808        C  0.17648342  0.68234424  0.57458937    -0.04380
C809        C  0.20392239  0.67338267  0.57970410    -0.01490
C810        C  0.21667836  0.67743365  0.60598540     0.03490
C811        C  0.15325300  0.69838957  0.64687713     0.38140
C812        C  0.21936979  0.66095234  0.55736885     0.38130
C813        C  0.24625860  0.67162444  0.60872613     0.36550
C814        C  0.13050779  0.69526646  0.59253886     0.36550
N815        N  0.26992195  0.66709416  0.61048292    -0.38270
N816        N  0.10719952  0.70030229  0.58859563    -0.38270
N817        N  0.23165828  0.65044218  0.53984651    -0.37710
N818        N  0.13834617  0.70377957  0.66476769    -0.37720
C819        C  0.31694957  0.61522145  0.84876636    -0.04380
C820        C  0.33925453  0.60275914  0.83440431    -0.01500
C821        C  0.34916936  0.57633671  0.84306685     0.03490
C822        C  0.33563978  0.56176566  0.86470549    -0.04380
C823        C  0.31963292  0.57718398  0.88322066    -0.01490
C824        C  0.30838126  0.60288225  0.87439216     0.03490
C825        C  0.35046549  0.61570918  0.80957817     0.38140
C826        C  0.31019045  0.56380419  0.90858672     0.38130
C827        C  0.28801121  0.61620962  0.89186507     0.36550
C828        C  0.36963851  0.56183432  0.82682226     0.36550
N829        N  0.27176982  0.62660911  0.90595704    -0.38270
N830        N  0.38600459  0.55023943  0.81386426    -0.38270
N831        N  0.30263445  0.55311162  0.92881769    -0.37710
N832        N  0.35945045  0.62596002  0.78971311    -0.37720
C833        C  0.30119056  0.90222815  0.70285806    -0.04380
C834        C  0.32008601  0.91504628  0.72171373    -0.01500
C835        C  0.32533225  0.94406169  0.71959388     0.03490
C836        C  0.31415951  0.95944556  0.69705890    -0.04380
C837        C  0.30054436  0.94527515  0.67545498    -0.01490
C838        C  0.29081382  0.91815206  0.68014786     0.03490
C839        C  0.33157772  0.89930126  0.74491011     0.38140
C840        C  0.29227337  0.96038506  0.65038932     0.38130
C841        C  0.26651023  0.90945754  0.66447642     0.36550
C842        C  0.34102495  0.95826394  0.74104764     0.36550
N843        N  0.24577466  0.90487758  0.65292971    -0.38270
N844        N  0.35376840  0.96940464  0.75819880    -0.38270
N845        N  0.28569443  0.97246680  0.63050356    -0.37710
N846        N  0.34074998  0.88673451  0.76344297    -0.37720
C847        C  0.29633612  0.83389164  0.62450673    -0.04380
C848        C  0.28010590  0.85495786  0.61137338    -0.01500
C849        C  0.29018839  0.86882609  0.58766588     0.03490
C850        C  0.30785677  0.85407829  0.57003204    -0.04380
C851        C  0.32466556  0.83308249  0.58222377    -0.01490
C852        C  0.32010645  0.82425593  0.61014965     0.03490
C853        C  0.25063320  0.85765834  0.61726876     0.38140
C854        C  0.34550465  0.81963898  0.56563467     0.38130
C855        C  0.33782198  0.80311367  0.62251451     0.36550
C856        C  0.27605504  0.89342655  0.57707385     0.36550
N857        N  0.35201417  0.78619574  0.63231240    -0.38270
N858        N  0.26479437  0.91302469  0.56862426    -0.38270
N859        N  0.36248776  0.80879204  0.55282533    -0.37710
N860        N  0.22682278  0.85887737  0.62096626    -0.37720
C861        C  0.21265861  0.89869013  0.83719762    -0.04380
C862        C  0.18366191  0.90457237  0.83928535    -0.01500
C863        C  0.17435198  0.93234989  0.83946238     0.03490
C864        C  0.19374764  0.95438794  0.83867803    -0.04380
C865        C  0.22246281  0.94873332  0.84084002    -0.01490
C866        C  0.23205345  0.92116784  0.83942335     0.03490
C867        C  0.16311637  0.88235563  0.84129061     0.38140
C868        C  0.24221312  0.97173371  0.84236501     0.38130
C869        C  0.26197801  0.91666002  0.83872692     0.36550
C870        C  0.14471349  0.93842762  0.83891656     0.36550
N871        N  0.28587689  0.91330262  0.83819063    -0.38270
N872        N  0.12108538  0.94332040  0.83850509    -0.38270
N873        N  0.25785464  0.99012462  0.84361417    -0.37710
N874        N  0.14660267  0.86475764  0.84296361    -0.37720
C875        C  0.47574809  0.77650098  0.29493254    -0.04380
C876        C  0.50007656  0.76132713  0.28783324    -0.01500
C877        C  0.49783023  0.73897258  0.26964489     0.03490
C878        C  0.47405769  0.73653727  0.25241935    -0.04380
C879        C  0.45050795  0.75298540  0.25768688    -0.01490
C880        C  0.45020995  0.76948586  0.28134140     0.03490
C881        C  0.52798557  0.76874323  0.29711646     0.38140
C882        C  0.42694881  0.75419448  0.23844875     0.38130
C883        C  0.42319739  0.77763018  0.29165479     0.36550
C884        C  0.51997708  0.71847816  0.26909572     0.36550
N885        N  0.40104539  0.78346314  0.29878221    -0.38270
N886        N  0.53764943  0.70220404  0.26915282    -0.38270
N887        N  0.40819866  0.75544092  0.22316152    -0.37710
N888        N  0.55067272  0.77349081  0.30411636    -0.37720
C889        C  0.36698729  0.70352121  0.19696127    -0.04380
C890        C  0.37527734  0.67943939  0.21222269    -0.01500
C891        C  0.40160179  0.66725504  0.20744955     0.03490
C892        C  0.42063430  0.68016218  0.18911355    -0.04380
C893        C  0.41033305  0.70035730  0.17027300    -0.01490
C894        C  0.38362269  0.71199872  0.17409722     0.03490
C895        C  0.35791398  0.66811199  0.23414390     0.38140
C896        C  0.42855663  0.71145275  0.14893229     0.38130
C897        C  0.37355482  0.73281567  0.15448112     0.36550
C898        C  0.41101148  0.64389699  0.22429424     0.36550
N899        N  0.36553417  0.74933150  0.13872858    -0.38270
N900        N  0.41855691  0.62527569  0.23773880    -0.38270
N901        N  0.44315615  0.72031475  0.13195681    -0.37710
N902        N  0.34414186  0.65897357  0.25166166    -0.37720
C903        C  0.16557774  0.71173073  0.41257332    -0.04380
C904        C  0.14028618  0.71369376  0.42740744    -0.01500
C905        C  0.13803442  0.70243411  0.45445985     0.03490
C906        C  0.16191178  0.69237719  0.46844161    -0.04380
C907        C  0.18619885  0.68745531  0.45284768    -0.01490
C908        C  0.18793610  0.69676918  0.42486622     0.03490
C909        C  0.11698752  0.72918687  0.41616975     0.38140
C910        C  0.21020270  0.67489117  0.46634498     0.38130
C911        C  0.21363776  0.69321246  0.40970836     0.36550
C912        C  0.11214879  0.70491000  0.46967298     0.36550
N913        N  0.23416479  0.69044530  0.39760187    -0.38270
N914        N  0.09156975  0.70689129  0.48185822    -0.38270
N915        N  0.22948274  0.66468012  0.47678758    -0.37710
N916        N  0.09806672  0.74212626  0.40874011    -0.37720
C917        C  0.29841903  0.82552003  0.40891419    -0.04380
C918        C  0.31688474  0.81389729  0.42926297    -0.01500
C919        C  0.32010701  0.82625682  0.45557914     0.03490
C920        C  0.30412551  0.84949577  0.46262732    -0.04380
C921        C  0.28916135  0.86351706  0.44137928    -0.01490
C922        C  0.28568724  0.85142130  0.41493069     0.03490
C923        C  0.33181401  0.78836097  0.42426393     0.38140
C924        C  0.27463926  0.88895423  0.44801679     0.38130
C925        C  0.26714158  0.86492128  0.39504677     0.36550
C926        C  0.33836136  0.81364314  0.47625019     0.36550
N927        N  0.25220689  0.87577324  0.37937235    -0.38270
N928        N  0.35324985  0.80337034  0.49231899    -0.38270
N929        N  0.26298897  0.90916611  0.45337650    -0.37710
N930        N  0.34347686  0.76767392  0.42113177    -0.37720
C931        C  0.37330501  0.82357030  0.33782627    -0.04380
C932        C  0.39308916  0.81063975  0.35604944    -0.01500
C933        C  0.41983049  0.82246891  0.36014169     0.03490
C934        C  0.42882387  0.84493817  0.34333116    -0.04380
C935        C  0.40875437  0.85972777  0.32775305    -0.01490
C936        C  0.38094759  0.84964361  0.32550246     0.03490
C937        C  0.38775188  0.78358848  0.36859287     0.38140
C938        C  0.41747727  0.88444311  0.31259696     0.38130
C939        C  0.36110551  0.86568096  0.30913189     0.36550
C940        C  0.43960168  0.80898370  0.37891165     0.36550
N941        N  0.34538270  0.87873986  0.29616974    -0.38270
N942        N  0.45526220  0.79812374  0.39384962    -0.38270
N943        N  0.42446174  0.90423174  0.30060627    -0.37710
N944        N  0.38448222  0.76154907  0.37791959    -0.37720
C945        C  0.28936380  0.69659148  0.07080563    -0.04380
C946        C  0.29877943  0.67929428  0.09271615    -0.01500
C947        C  0.29839862  0.68884168  0.12038096     0.03490
C948        C  0.28878742  0.71595656  0.12626353    -0.04380
C949        C  0.28136355  0.73379543  0.10389080    -0.01490
C950        C  0.28087617  0.72396033  0.07649571     0.03490
C951        C  0.30809733  0.65138825  0.08679556     0.38140
C952        C  0.27411748  0.76242770  0.10876476     0.38130
C953        C  0.27010208  0.74166940  0.05430412     0.36550
C954        C  0.30894158  0.67106362  0.14257348     0.36550
N955        N  0.26093525  0.75581347  0.03695642    -0.38270
N956        N  0.31748465  0.65690423  0.16023795    -0.38270
N957        N  0.26906793  0.78554714  0.11227462    -0.37710
N958        N  0.31557630  0.62914488  0.08199810    -0.37720
C959        C  0.31624573  0.69561482  0.91264945    -0.04380
C960        C  0.31120807  0.71785425  0.93051205    -0.01500
C961        C  0.31091858  0.71306110  0.95949067     0.03490
C962        C  0.31332186  0.68558446  0.97010742    -0.04380
C963        C  0.32361981  0.66486932  0.95256046    -0.01490
C964        C  0.32697996  0.67075509  0.92404222     0.03490
C965        C  0.30493296  0.74507793  0.91897671     0.38140
C966        C  0.32879739  0.63716700  0.96340769     0.38130
C967        C  0.34306124  0.65245685  0.90690957     0.36550
C968        C  0.30585493  0.73589289  0.97800522     0.36550
N969        N  0.35726736  0.63844747  0.89383192    -0.38270
N970        N  0.30245592  0.75453710  0.99249319    -0.38270
N971        N  0.33275220  0.61496468  0.97200157    -0.37710
N972        N  0.30007494  0.76683475  0.90971737    -0.37720
C973        C  0.17254105  0.81689700  0.06806960    -0.04380
C974        C  0.14690515  0.82150061  0.08128310    -0.01500
C975        C  0.14619684  0.82375565  0.11037683     0.03490
C976        C  0.17074930  0.81985016  0.12622363    -0.04380
C977        C  0.19666216  0.82071701  0.11281047    -0.01490
C978        C  0.19764794  0.81883141  0.08360775     0.03490
C979        C  0.12118523  0.82248927  0.06516588     0.38140
C980        C  0.22183293  0.82421033  0.12929417     0.38130
C981        C  0.22420116  0.81798390  0.06954714     0.36550
C982        C  0.12102912  0.83298685  0.12359878     0.36550
N983        N  0.24530869  0.81746143  0.05809442    -0.38270
N984        N  0.10107296  0.84211878  0.13312433    -0.38270
N985        N  0.24141188  0.82785307  0.14307555    -0.37710
N986        N  0.10064467  0.82326622  0.05233576    -0.37720
C987        C  0.17540709  0.82595650  0.96313373    -0.04380
C988        C  0.15957551  0.81941668  0.93935063    -0.01500
C989        C  0.17263452  0.81727801  0.91334205     0.03490
C990        C  0.20175163  0.82356273  0.91049604    -0.04380
C991        C  0.21556005  0.83621225  0.93344514    -0.01490
C992        C  0.20244209  0.83721263  0.95962478     0.03490
C993        C  0.13028382  0.81208123  0.94246703     0.38140
C994        C  0.24343957  0.84781178  0.93077360     0.38130
C995        C  0.21766572  0.84788409  0.98342769     0.36550
C996        C  0.15566785  0.80757176  0.89022828     0.36550
N997        N  0.22978663  0.85656046  0.00236384    -0.38270
N998        N  0.14189510  0.79974010  0.87201671    -0.38270
N999        N  0.26564159  0.85723613  0.92882872    -0.37710
N1000       N  0.10696186  0.80621223  0.94495741    -0.37720
C1001       C  0.19013058  0.73777907  0.00516973    -0.04380
C1002       C  0.21200664  0.73655911  0.98571686    -0.01500
C1003       C  0.22387492  0.71107551  0.97948039     0.03490
C1004       C  0.22105696  0.68860432  0.99831835    -0.04380
C1005       C  0.19749236  0.68852484  0.01582365    -0.01490
C1006       C  0.18149416  0.71298506  0.01870495     0.03490
C1007       C  0.22480145  0.76148718  0.97405491     0.38140
C1008       C  0.19069385  0.66361198  0.03154495     0.38130
C1009       C  0.15707431  0.71289179  0.03618607     0.36550
C1010       C  0.23814711  0.70836345  0.95334726     0.36550
N1011       N  0.13748746  0.71281338  0.05005824    -0.38270
N1012       N  0.24843460  0.70648741  0.93185144    -0.38270
N1013       N  0.18531329  0.64365010  0.04405869    -0.37710
N1014       N  0.23580716  0.78099923  0.96500575    -0.37720
C1015       C  0.03039266  0.69569036  0.35267898    -0.04380
C1016       C  0.05025158  0.67812246  0.34082796    -0.01500
C1017       C  0.07788948  0.68770008  0.33608735     0.03490
C1018       C  0.08548220  0.71588102  0.34169339    -0.04380
C1019       C  0.06529045  0.73273352  0.35504037    -0.01490
C1020       C  0.03943832  0.72134239  0.36335158     0.03490
C1021       C  0.04126285  0.65099385  0.33127731     0.38140
C1022       C  0.06947639  0.76242458  0.35856597     0.38130
C1023       C  0.01970711  0.73809392  0.37850811     0.36550
C1024       C  0.09747472  0.66869868  0.32378751     0.36550
N1025       N  0.00392265  0.75137388  0.39053836    -0.38270
N1026       N  0.11291978  0.65334094  0.31395204    -0.38270
N1027       N  0.07247425  0.78612350  0.36139858    -0.37710
N1028       N  0.03398556  0.62938717  0.32363325    -0.37720
C1029       C  0.03088452  0.83857342  0.18155478    -0.04380
C1030       C  0.04799117  0.85435938  0.19949497    -0.01500
C1031       C  0.07557745  0.84572827  0.20594356     0.03490
C1032       C  0.08637755  0.82106927  0.19424928    -0.04380
C1033       C  0.07010802  0.80758775  0.17330438    -0.01490
C1034       C  0.04311883  0.81716230  0.16630795     0.03490
C1035       C  0.03591616  0.87787137  0.21347817     0.38140
C1036       C  0.08086897  0.78400780  0.15827833     0.38130
C1037       C  0.02622412  0.80256788  0.14587089     0.36550
C1038       C  0.09179500  0.86136271  0.22603021     0.36550
N1039       N  0.01266802  0.79092591  0.12968100    -0.38270
N1040       N  0.10463876  0.87396687  0.24206318    -0.38270
N1041       N  0.08928072  0.76524066  0.14616277    -0.37710
N1042       N  0.02620514  0.89664382  0.22456975    -0.37720
C1043       C  0.97330310  0.78105357  0.24066511    -0.04380
C1044       C  0.96330543  0.78845685  0.26690947    -0.01500
C1045       C  0.96366688  0.76879142  0.28841046     0.03490
C1046       C  0.97371424  0.74190173  0.28324989    -0.04380
C1047       C  0.98300110  0.73431905  0.25678921    -0.01490
C1048       C  0.98292412  0.75407872  0.23538121     0.03490
C1049       C  0.95333984  0.81641532  0.27184631     0.38140
C1050       C  0.99246234  0.70623676  0.25167719     0.38130
C1051       C  0.99268338  0.74679634  0.20798126     0.36550
C1052       C  0.95451061  0.77636285  0.31594713     0.36550
N1053       N  0.00050174  0.74111124  0.18613492    -0.38270
N1054       N  0.94722253  0.78231380  0.33790749    -0.38270
N1055       N  0.00000665  0.68383995  0.24771407    -0.37710
N1056       N  0.94535148  0.83868933  0.27564981    -0.37720
C1057       C  0.76793466  0.52724348  0.26622163    -0.04380
C1058       C  0.77881590  0.52901401  0.23924445    -0.01500
C1059       C  0.76040883  0.53049813  0.21646411     0.03490
C1060       C  0.73150803  0.53091443  0.22113979    -0.04380
C1061       C  0.72097371  0.53222801  0.24840211    -0.01490
C1062       C  0.73919227  0.52979616  0.27097312     0.03490
C1063       C  0.80876379  0.52908177  0.23517019     0.38140
C1064       C  0.69131615  0.53474981  0.25355142     0.38130
C1065       C  0.72826006  0.52876742  0.29904630     0.36550
C1066       C  0.77095068  0.53124558  0.18840286     0.36550
N1067       N  0.71943638  0.52795037  0.32131303    -0.38270
N1068       N  0.77935317  0.53201186  0.16597859    -0.38270
N1069       N  0.66790390  0.53673815  0.25873210    -0.37710
N1070       N  0.83270771  0.52933348  0.23218671    -0.37720
C1071       C  0.58407587  0.69250836  0.20705924    -0.04380
C1072       C  0.57434842  0.70784260  0.18351408    -0.01500
C1073       C  0.54653252  0.70436083  0.17372182     0.03490
C1074       C  0.52812529  0.68576527  0.18720593    -0.04380
C1075       C  0.53912862  0.66719349  0.20725741    -0.01490
C1076       C  0.56654161  0.67096178  0.21772746     0.03490
C1077       C  0.59198536  0.72861650  0.17034339     0.38140
C1078       C  0.52078757  0.64656590  0.21990136     0.38130
C1079       C  0.57560932  0.65340401  0.24069822     0.36550
C1080       C  0.53573866  0.72175918  0.15138577     0.36550
N1081       N  0.58202051  0.63966206  0.25951870    -0.38270
N1082       N  0.52702505  0.73554844  0.13351933    -0.38270
N1083       N  0.50613150  0.63026051  0.23008300    -0.37710
N1084       N  0.60597664  0.74519265  0.15967830    -0.37720
C1085       C  0.65463594  0.61918896  0.20558178    -0.04380
C1086       C  0.64085881  0.59713595  0.22025782    -0.01500
C1087       C  0.63563398  0.57135842  0.20724036     0.03490
C1088       C  0.64808969  0.56556003  0.18177400    -0.04380
C1089       C  0.65658877  0.58820513  0.16511153    -0.01490
C1090       C  0.66025568  0.61485177  0.17683293     0.03490
C1091       C  0.63363401  0.59951810  0.24924887     0.38140
C1092       C  0.66545135  0.58280881  0.13699418     0.38130
C1093       C  0.67128984  0.63685471  0.15918064     0.36550
C1094       C  0.61969897  0.54959691  0.22098353     0.36550
N1095       N  0.68018607  0.65419704  0.14488700    -0.38270
N1096       N  0.60680812  0.53224311  0.23180031    -0.38270
N1097       N  0.67258268  0.57843659  0.11459882    -0.37710
N1098       N  0.62824837  0.60073886  0.27256230    -0.37720
C1099       C  0.87061886  0.68935605  0.31923543    -0.04380
C1100       C  0.87792974  0.69924108  0.34621123    -0.01500
C1101       C  0.90470192  0.69368550  0.35774651     0.03490
C1102       C  0.92405375  0.67780917  0.34307588    -0.04380
C1103       C  0.91421186  0.66236874  0.32036057    -0.01490
C1104       C  0.88955437  0.67078917  0.30640427     0.03490
C1105       C  0.85934197  0.71706398  0.36141267     0.38140
C1106       C  0.93296758  0.64270094  0.30769606     0.38130
C1107       C  0.88642121  0.66320270  0.27752515     0.36550
C1108       C  0.91390642  0.70703921  0.38307586     0.36550
N1109       N  0.88505836  0.65798983  0.25416411    -0.38270
N1110       N  0.92132770  0.71769718  0.40327503    -0.38270
N1111       N  0.94799118  0.62710523  0.29761079    -0.37710
N1112       N  0.84465728  0.73132054  0.37370387    -0.37720
C1113       C  0.80369084  0.61955425  0.32123388    -0.04380
C1114       C  0.82685849  0.60460434  0.31065177    -0.01500
C1115       C  0.83680253  0.58064503  0.32471825     0.03490
C1116       C  0.81885070  0.56681805  0.34326704    -0.04380
C1117       C  0.79925939  0.58310442  0.35721379    -0.01490
C1118       C  0.79176466  0.60967178  0.34648124     0.03490
C1119       C  0.83789620  0.61058612  0.28335533     0.38140
C1120       C  0.78472278  0.57087736  0.38057951     0.38130
C1121       C  0.77037446  0.62534643  0.36031258     0.36550
C1122       C  0.86055187  0.56556234  0.31417557     0.36550
N1123       N  0.75337737  0.63784230  0.37154150    -0.38270
N1124       N  0.87932707  0.55340511  0.30564620    -0.38270
N1125       N  0.77325229  0.56112111  0.39937306    -0.37710
N1126       N  0.84579911  0.61382418  0.26094211    -0.37720
C1127       C  0.58723088  0.82632473  0.31824318    -0.04380
C1128       C  0.58201298  0.82153617  0.34707481    -0.01500
C1129       C  0.55485214  0.82507577  0.35798219     0.03490
C1130       C  0.53307452  0.83558183  0.34117005    -0.04380
C1131       C  0.53909024  0.84360955  0.31355786    -0.01490
C1132       C  0.56471952  0.83644713  0.30151066     0.03490
C1133       C  0.60383535  0.81165345  0.36568822     0.38140
C1134       C  0.51794333  0.85732868  0.29657062     0.38130
C1135       C  0.56660347  0.83796414  0.27143510     0.36550
C1136       C  0.54881807  0.81692409  0.38637478     0.36550
N1137       N  0.56778333  0.83918047  0.24747135    -0.38270
N1138       N  0.54390976  0.81039729  0.40900181    -0.38270
N1139       N  0.50140698  0.86850944  0.28286773    -0.37710
N1140       N  0.62108001  0.80374262  0.38075081    -0.37720
C1141       C  0.86915819  0.83119440  0.20103076    -0.04380
C1142       C  0.87790913  0.81788163  0.17642471    -0.01500
C1143       C  0.90451415  0.82397712  0.16514553     0.03490
C1144       C  0.92285755  0.84252623  0.17873690    -0.04380
C1145       C  0.91179651  0.86012257  0.19887724    -0.01490
C1146       C  0.88577281  0.85373118  0.21103641     0.03490
C1147       C  0.86082077  0.79646105  0.16371488     0.38140
C1148       C  0.92948274  0.88190331  0.21024014     0.38130
C1149       C  0.87723101  0.86979923  0.23471303     0.36550
C1150       C  0.91490562  0.80833962  0.14193079     0.36550
N1151       N  0.87113342  0.88244696  0.25397575    -0.38270
N1152       N  0.92327816  0.79589650  0.12340024    -0.38270
N1153       N  0.94366201  0.89919356  0.21931043    -0.37710
N1154       N  0.84726715  0.77935351  0.15344749    -0.37720
C1155       C  0.66895019  0.18261377  0.55150489    -0.04380
C1156       C  0.64614023  0.19101674  0.56732837    -0.01500
C1157       C  0.65059220  0.20017670  0.59461320     0.03490
C1158       C  0.67713555  0.19741043  0.60755017    -0.04380
C1159       C  0.69848364  0.18350439  0.59334196    -0.01490
C1160       C  0.69454264  0.17663189  0.56506609     0.03490
C1161       C  0.61906004  0.19451936  0.55388984     0.38140
C1162       C  0.72525626  0.17885625  0.60680655     0.38130
C1163       C  0.71754504  0.16610704  0.54906277     0.36550
C1164       C  0.62832946  0.21498096  0.60784073     0.36550
N1165       N  0.73592979  0.15769991  0.53628824    -0.38270
N1166       N  0.61003851  0.22748871  0.61670403    -0.38270
N1167       N  0.74663039  0.17513704  0.61758106    -0.37710
N1168       N  0.59754614  0.19737275  0.54312462    -0.37720
C1169       C  0.81483195  0.31700685  0.54971464    -0.04380
C1170       C  0.81957549  0.33602126  0.57121051    -0.01500
C1171       C  0.82000302  0.32673809  0.59915403     0.03490
C1172       C  0.81418241  0.29842443  0.60580625    -0.04380
C1173       C  0.81227080  0.27906108  0.58380428    -0.01490
C1174       C  0.81379534  0.28831525  0.55601919     0.03490
C1175       C  0.82263045  0.36532749  0.56450363     0.38140
C1176       C  0.80685913  0.24976964  0.58921824     0.38130
C1177       C  0.81184817  0.26843608  0.53361294     0.36550
C1178       C  0.82665955  0.34644317  0.62082218     0.36550
N1179       N  0.81040984  0.25245670  0.51588644    -0.38270
N1180       N  0.83215908  0.36216731  0.63806344    -0.38270
N1181       N  0.80244123  0.22641063  0.59335698    -0.37710
N1182       N  0.82512588  0.38869649  0.55906017    -0.37720
C1183       C  0.73432742  0.30400951  0.49281482    -0.04380
C1184       C  0.70835201  0.30776294  0.50567580    -0.01500
C1185       C  0.68839662  0.28612452  0.50533347     0.03490
C1186       C  0.69471216  0.26085791  0.49231288    -0.04380
C1187       C  0.72037816  0.25754112  0.47867023    -0.01490
C1188       C  0.73995127  0.27909817  0.47865791     0.03490
C1189       C  0.70265325  0.33346168  0.51989347     0.38140
C1190       C  0.72794939  0.23103734  0.46662450     0.38130
C1191       C  0.76675929  0.27429689  0.46578466     0.36550
C1192       C  0.66186401  0.28937159  0.51909618     0.36550
N1193       N  0.78772939  0.26935903  0.45530163    -0.38270
N1194       N  0.64068269  0.29188188  0.53011076    -0.38270
N1195       N  0.73445366  0.21012788  0.45706867    -0.37710
N1196       N  0.69818495  0.35400027  0.53124836    -0.37720
C1197       C  0.68200536  0.18645971  0.39080300    -0.04380
C1198       C  0.65482671  0.19609022  0.39760438    -0.01500
C1199       C  0.64429865  0.19190663  0.42458740     0.03490
C1200       C  0.66142158  0.18033584  0.44557173    -0.04380
C1201       C  0.68569412  0.16614493  0.43780408    -0.01490
C1202       C  0.69593002  0.16897609  0.41050618     0.03490
C1203       C  0.63782551  0.21156776  0.37778949     0.38140
C1204       C  0.70143516  0.15052346  0.45850674     0.38130
C1205       C  0.72091773  0.15391826  0.40323011     0.36550
C1206       C  0.61717680  0.20273281  0.43200141     0.36550
N1207       N  0.74081118  0.14177290  0.39756396    -0.38270
N1208       N  0.59559089  0.21138998  0.43796991    -0.38270
N1209       N  0.71403462  0.13799000  0.47493770    -0.37710
N1210       N  0.62408713  0.22396489  0.36217466    -0.37720
C1211       C  0.68226799  0.40353760  0.18895777    -0.04380
C1212       C  0.67181487  0.41645778  0.16451155    -0.01500
C1213       C  0.66668861  0.44538798  0.16390054     0.03490
C1214       C  0.66949226  0.46091487  0.18838075    -0.04380
C1215       C  0.67418610  0.44654614  0.21386976    -0.01490
C1216       C  0.68171030  0.41823919  0.21401063     0.03490
C1217       C  0.66496819  0.39998729  0.14046257     0.38140
C1218       C  0.67299902  0.46129405  0.23988239     0.38130
C1219       C  0.68973037  0.40446311  0.23980082     0.36550
C1220       C  0.66032157  0.45943105  0.13785721     0.36550
N1221       N  0.69614961  0.39346731  0.26035316    -0.38270
N1222       N  0.65533860  0.47071670  0.11707570    -0.38270
N1223       N  0.67190883  0.47243257  0.26098508    -0.37710
N1224       N  0.65803762  0.38728372  0.12134088    -0.37720
C1225       C  0.78535085  0.40617975  0.31955090    -0.04380
C1226       C  0.81373598  0.41410472  0.31494697    -0.01500
C1227       C  0.82290758  0.44164700  0.32030694     0.03490
C1228       C  0.80473368  0.46106835  0.33205588    -0.04380
C1229       C  0.77796135  0.45219429  0.34011241    -0.01490
C1230       C  0.76733949  0.42636954  0.33122617     0.03490
C1231       C  0.83339023  0.39494485  0.30299114     0.38140
C1232       C  0.76013557  0.47131115  0.35478452     0.38130
C1233       C  0.73728854  0.42223455  0.33214169     0.36550
C1234       C  0.85057315  0.45079929  0.31209793     0.36550
N1235       N  0.71329786  0.41926365  0.33282074    -0.38270
N1236       N  0.87258779  0.45821535  0.30549301    -0.38270
N1237       N  0.74608395  0.48647001  0.36671463    -0.37710
N1238       N  0.84925184  0.37987660  0.29336001    -0.37720
C1239       C  0.79242130  0.33370244  0.39281683    -0.04380
C1240       C  0.78697607  0.35964035  0.40535726    -0.01500
C1241       C  0.79914136  0.36620475  0.43122378     0.03490
C1242       C  0.81205833  0.34511918  0.44702328    -0.04380
C1243       C  0.82214666  0.32177244  0.43292377    -0.01490
C1244       C  0.81220652  0.31585837  0.40578585     0.03490
C1245       C  0.76688913  0.37873242  0.39342095     0.38140
C1246       C  0.84074706  0.30277671  0.44737672     0.38130
C1247       C  0.82045682  0.29037197  0.39248777     0.36550
C1248       C  0.79348753  0.39257545  0.44429264     0.36550
N1249       N  0.82703837  0.26999213  0.38190482    -0.38270
N1250       N  0.78900376  0.41358899  0.45475476    -0.38270
N1251       N  0.85561198  0.28760921  0.45893938    -0.37710
N1252       N  0.75008227  0.39398394  0.38529815    -0.37720
C1253       C  0.67201020  0.06046440  0.30166272    -0.04380
C1254       C  0.65771234  0.07792458  0.32016446    -0.01500
C1255       C  0.66567674  0.10619471  0.32278324     0.03490
C1256       C  0.68750020  0.11732935  0.30648660    -0.04380
C1257       C  0.70174285  0.10019018  0.28810163    -0.01490
C1258       C  0.69469745  0.07188492  0.28617996     0.03490
C1259       C  0.63426714  0.06718112  0.33588149     0.38140
C1260       C  0.72319971  0.11204666  0.27022064     0.38130
C1261       C  0.71132650  0.05518383  0.26781373     0.36550
C1262       C  0.65170343  0.12373000  0.34252516     0.36550
N1263       N  0.72530705  0.04360931  0.25236455    -0.38270
N1264       N  0.64056836  0.13764055  0.35836172    -0.38270
N1265       N  0.74009827  0.12147274  0.25584102    -0.37710
N1266       N  0.61557647  0.05863191  0.34848464    -0.37720
C1267       C  0.65295770  0.95866800  0.32995533    -0.04380
C1268       C  0.67846930  0.94590429  0.33718728    -0.01500
C1269       C  0.68308952  0.91769658  0.33032297     0.03490
C1270       C  0.66149056  0.90224085  0.31733124    -0.04380
C1271       C  0.63433854  0.91389217  0.31627520    -0.01490
C1272       C  0.62983750  0.94115679  0.32560865     0.03490
C1273       C  0.69980277  0.96214075  0.35104678     0.38140
C1274       C  0.61151687  0.89978904  0.30254276     0.38130
C1275       C  0.60223810  0.95339707  0.32435242     0.36550
C1276       C  0.71042028  0.90556249  0.33444143     0.36550
N1277       N  0.58024378  0.96319912  0.32339001    -0.38270
N1278       N  0.73228641  0.89587230  0.33763588    -0.38270
N1279       N  0.59277157  0.89034050  0.29064371    -0.37710
N1280       N  0.71675758  0.97504952  0.36245162    -0.37720
C1281       C  0.78624078  0.05736285  0.16788874    -0.04380
C1282       C  0.76759550  0.07266741  0.15095658    -0.01500
C1283       C  0.76153259  0.10049945  0.15706743     0.03490
C1284       C  0.77676866  0.11487359  0.17809054    -0.04380
C1285       C  0.79918497  0.10074399  0.19147275    -0.01490
C1286       C  0.80342218  0.07193051  0.18686193     0.03490
C1287       C  0.75267801  0.05873836  0.12857028     0.38140
C1288       C  0.81704150  0.11520792  0.21108169     0.38130
C1289       C  0.82513099  0.05737099  0.20204572     0.36550
C1290       C  0.73819854  0.11322723  0.14244849     0.36550
N1291       N  0.84301324  0.04644279  0.21411140    -0.38270
N1292       N  0.71885251  0.12248174  0.13125775    -0.38270
N1293       N  0.83149316  0.12671160  0.22660797    -0.37710
N1294       N  0.74073361  0.04757089  0.11088193    -0.37720
C1295       C  0.80923261  0.95265366  0.17432526    -0.04380
C1296       C  0.80258063  0.92924233  0.15828018    -0.01500
C1297       C  0.79807302  0.90307212  0.17125574     0.03490
C1298       C  0.80103606  0.89999659  0.20070911    -0.04380
C1299       C  0.81323877  0.92269120  0.21539300    -0.01490
C1300       C  0.81916004  0.94805162  0.20147285     0.03490
C1301       C  0.79639484  0.93333356  0.12899425     0.38140
C1302       C  0.81837070  0.92123635  0.24507651     0.38130
C1303       C  0.83344736  0.97035234  0.21579931     0.36550
C1304       C  0.78934048  0.88008967  0.15391440     0.36550
N1305       N  0.84527615  0.98762064  0.22767666    -0.38270
N1306       N  0.78227829  0.86194706  0.13986288    -0.38270
N1307       N  0.82231373  0.92054450  0.26880998    -0.37710
N1308       N  0.79138078  0.93667700  0.10565940    -0.37720
C1309       C  0.72113350  0.98640761  0.20058612    -0.04380
C1310       C  0.69305676  0.98785919  0.19175989    -0.01500
C1311       C  0.67168456  0.98837249  0.21168076     0.03490
C1312       C  0.67877279  0.98762714  0.24010619    -0.04380
C1313       C  0.70686106  0.98354612  0.24857911    -0.01490
C1314       C  0.72788597  0.98276111  0.22886557     0.03490
C1315       C  0.68646591  0.98964134  0.16241106     0.38140
C1316       C  0.71521488  0.98461152  0.27760859     0.38130
C1317       C  0.75684503  0.98171041  0.23825462     0.36670
C1318       C  0.64270924  0.99058333  0.20316040     0.36550
N1319       N  0.77956611  0.98133810  0.24657839    -0.38270
N1320       N  0.61952613  0.99215485  0.19636983    -0.38270
N1321       N  0.72323307  0.98653389  0.30020056    -0.37710
N1322       N  0.68134485  0.99089771  0.13891726    -0.37720
C1323       C  0.68072328  0.33417574  0.04763684    -0.04380
C1324       C  0.66818329  0.31255118  0.06316008    -0.01500
C1325       C  0.67265488  0.31064504  0.09225044     0.03490
C1326       C  0.69065159  0.32991040  0.10568666    -0.04380
C1327       C  0.70077691  0.35313839  0.09022463    -0.01490
C1328       C  0.69460847  0.35582017  0.06172477     0.03490
C1329       C  0.65198425  0.29151681  0.04883908     0.38140
C1330       C  0.71814128  0.37428218  0.10323138     0.38130
C1331       C  0.70550995  0.37938409  0.04597931     0.36550
C1332       C  0.66045094  0.28768368  0.10773097     0.36550
N1333       N  0.71423528  0.39803654  0.03332555    -0.38270
N1334       N  0.65060802  0.26937593  0.12006740    -0.38270
N1335       N  0.73205081  0.39116239  0.11341620    -0.37710
N1336       N  0.63883595  0.27481446  0.03746995    -0.37720
C1337       C  0.68256960  0.33209799  0.94288713    -0.04380
C1338       C  0.67952669  0.30327518  0.93826212    -0.01500
C1339       C  0.68166991  0.29256227  0.91129966     0.03490
C1340       C  0.68454367  0.31077011  0.88804914    -0.04380
C1341       C  0.68422655  0.33997716  0.89267648    -0.01490
C1342       C  0.68408809  0.35041934  0.91999778     0.03490
C1343       C  0.67662955  0.28418864  0.96168077     0.38140
C1344       C  0.68397340  0.35961302  0.86960805     0.38130
C1345       C  0.68654434  0.38004529  0.92478035     0.36550
C1346       C  0.68241645  0.26257208  0.90817108     0.36550
N1347       N  0.68852857  0.40367976  0.92862294    -0.38270
N1348       N  0.68302881  0.23865550  0.90591451    -0.38270
N1349       N  0.68369562  0.37538532  0.85128958    -0.37710
N1350       N  0.67430577  0.26888933  0.98023136    -0.37720
C1351       C  0.78612576  0.18843107  0.10684380    -0.04380
C1352       C  0.76900230  0.17651908  0.08568205    -0.01500
C1353       C  0.78017753  0.17041946  0.05949336     0.03490
C1354       C  0.80775965  0.17838917  0.05299721    -0.04380
C1355       C  0.82581315  0.18664088  0.07460146    -0.01490
C1356       C  0.81521838  0.19207827  0.10123079     0.03490
C1357       C  0.73927051  0.17211987  0.08942582     0.38140
C1358       C  0.85508690  0.19161283  0.06851956     0.38130
C1359       C  0.83454254  0.20292991  0.12187669     0.36550
C1360       C  0.76242512  0.15770094  0.03850276     0.36550
N1361       N  0.85016624  0.21173111  0.13806984    -0.38270
N1362       N  0.74826605  0.14731800  0.02195308    -0.38270
N1363       N  0.87837495  0.19565415  0.06359378    -0.37710
N1364       N  0.71541992  0.16892694  0.09164122    -0.37720
C1365       C  0.80076135  0.17695070  0.94817854    -0.04380
C1366       C  0.77668565  0.17341450  0.93149104    -0.01500
C1367       C  0.77709975  0.18135556  0.90313880     0.03490
C1368       C  0.80146045  0.19365046  0.89187931    -0.04380
C1369       C  0.82637809  0.19354134  0.90785846    -0.01490
C1370       C  0.82627024  0.18371623  0.93543304     0.03490
C1371       C  0.75108834  0.16372669  0.94421735     0.38140
C1372       C  0.85189028  0.20545762  0.89704376     0.38130
C1373       C  0.85175729  0.18460262  0.95204387     0.36550
C1374       C  0.75191668  0.17908216  0.88638288     0.36550
N1375       N  0.87201740  0.18538514  0.96530816    -0.38270
N1376       N  0.73182396  0.17720531  0.87297995    -0.38270
N1377       N  0.87259617  0.21544722  0.88978513    -0.37710
N1378       N  0.73068447  0.15583429  0.95437549    -0.37720
C1379       C  0.76337139  0.31093468  0.99436648    -0.04380
C1380       C  0.77439362  0.29835299  0.97026584    -0.01500
C1381       C  0.79414295  0.27703513  0.97351045     0.03490
C1382       C  0.79619977  0.26299745  0.99941908    -0.04380
C1383       C  0.78836747  0.27792982  0.02340097    -0.01490
C1384       C  0.77647090  0.30435764  0.01999751     0.03490
C1385       C  0.76400961  0.30412178  0.94246986     0.38140
C1386       C  0.78822689  0.26566359  0.05101159     0.38130
C1387       C  0.77427301  0.32286613  0.04348371     0.36550
C1388       C  0.81026209  0.26805354  0.94988632     0.36550
N1389       N  0.77237235  0.33752266  0.06223693    -0.38270
N1390       N  0.82303920  0.26095697  0.93101347    -0.38270
N1391       N  0.78756834  0.25609500  0.07315214    -0.37710
N1392       N  0.75594430  0.30807645  0.92005043    -0.37720
loop_ 
_geom_bond_atom_site_label_1 
_geom_bond_atom_site_label_2 
_geom_bond_distance 
_geom_bond_site_symmetry_2 
_ccdc_geom_bond_type 
C1            C2   1.396       .  A
C1            C6   1.403   1_556  A
C1         C1365   1.478       .  S
C2            C3   1.403       .  A
C2            H7   1.082       .  S
C3            C4   1.397   1_556  A
C3         C1382   1.501       .  S
C4            C5   1.405       .  A
C4            H8   1.077       .  S
C5            C6   1.409       .  A
C5         C1354   1.488       .  S
C6            H9   1.083       .  S
C10          C11   1.402       .  A
C10          C15   1.413       .  A
C10        C1337   1.484       .  S
C11          C12   1.399       .  A
C11          H16   1.083       .  S
C12          C13   1.406   1_556  A
C12        C1379   1.504       .  S
C13          C14   1.393       .  A
C13          H17   1.080       .  S
C14          C15   1.405   1_554  A
C14        C1323   1.483       .  S
C15          H18   1.082       .  S
C19          C20   1.401       .  A
C19          C24   1.421   1_565  A
C19        C1295   1.488       .  S
C20          C21   1.381       .  A
C20          H25   1.086       .  S
C21          C22   1.387   1_565  A
C21        C1309   1.466       .  S
C22          C23   1.404       .  A
C22          H26   1.086       .  S
C23          C24   1.419       .  A
C23        C1281   1.499       .  S
C24          H27   1.082       .  S
C28          C29   1.404       .  A
C28          C33   1.423       .  A
C28        C1253   1.503       .  S
C29          C30   1.391   1_545  A
C29          H34   1.084       .  S
C30          C31   1.384       .  A
C30        C1312   1.473       .  S
C31          C32   1.404       .  A
C31          H35   1.085       .  S
C32          C33   1.416   1_565  A
C32        C1267   1.492       .  S
C33          H36   1.082       .  S
O37         Ni45   1.933       .  S
O37          C47   1.282       .  A
O38         Ni45   1.932       .  S
O38          C48   1.286       .  A
O39         Ni45   1.911       .  S
O39          C49   1.280       .  A
O40         Ni45   1.916       .  S
O40          C50   1.278       .  A
O41         Ni46   1.940       .  S
O41          C50   1.286       .  A
O42         Ni46   1.931       .  S
O42          C49   1.284       .  A
O43         Ni46   1.916       .  S
O43          C48   1.279       .  A
O44         Ni46   1.922       .  S
O44          C47   1.282       .  A
Ni45        Ni46   2.382       .  S
C47          C61   1.477       .  S
C48        C1239   1.498       .  S
C49        C1225   1.517       .  S
C50          C91   1.478       .  S
O51         Ni59   1.942       .  S
O51          C61   1.286       .  A
O52         Ni59   1.934       .  S
O52          C62   1.284       .  A
O53         Ni59   1.922       .  S
O53          C63   1.283       .  A
O54         Ni59   1.915       .  S
O54          C64   1.277       .  A
O55         Ni60   1.939       .  S
O55          C64   1.286       .  A
O56         Ni60   1.939       .  S
O56          C63   1.283       .  A
O57         Ni60   1.909       .  S
O57          C62   1.280       .  A
O58         Ni60   1.913       .  S
O58          C61   1.279       .  A
Ni59        Ni60   2.386       .  S
C62        C1326   1.499       .  S
C63          C77   1.481       .  S
C64        C1211   1.487       .  S
O65         Ni73   1.921       .  S
O65          C75   1.280       .  A
O66         Ni73   1.904       .  S
O66          C76   1.277       .  A
O67         Ni73   1.952       .  S
O67          C77   1.288       .  A
O68         Ni73   1.944       .  S
O68          C78   1.287       .  A
O69         Ni74   1.904       .  S
O69          C78   1.278       .  A
O70         Ni74   1.907       .  S
O70          C77   1.278       .  A
O71         Ni74   1.925       .  S
O71          C76   1.284       .  A
O72         Ni74   1.920       .  S
O72          C75   1.282       .  A
Ni73        Ni74   2.378       .  S
C75          C89   1.469       .  S
C76        C1351   1.513       .  S
C78        C1284   1.510       .  S
O79         Ni87   1.917       .  S
O79          C89   1.280       .  A
O80         Ni87   1.905       .  S
O80          C90   1.278       .  A
O81         Ni87   1.934       .  S
O81          C91   1.285       .  A
O82         Ni87   1.918       .  S
O82          C92   1.280       .  A
O83         Ni88   1.911       .  S
O83          C92   1.280       .  A
O84         Ni88   1.922       .  S
O84          C91   1.279       .  A
O85         Ni88   1.927       .  S
O85          C90   1.285       .  A
O86         Ni88   1.924       .  S
O86          C89   1.282       .  A
Ni87        Ni88   2.386       .  S
C90        C1197   1.510       .  S
C92        C1256   1.477       .  S
C93          C94   1.400       .  A
C93          C98   1.415       .  A
C93        C1169   1.483       .  S
C94          C95   1.386       .  A
C94          H99   1.086       .  S
C95          C96   1.384       .  A
C95        C1183   1.471       .  S
C96          C97   1.404       .  A
C96         H100   1.085       .  S
C97          C98   1.415       .  A
C97        C1242   1.489       .  S
C98         H101   1.083       .  S
C102        C103   1.402       .  A
C102        C107   1.415       .  A
C102       C1200   1.488       .  S
C103        C104   1.387       .  A
C103        H108   1.086       .  S
C104        C105   1.385       .  A
C104       C1186   1.468       .  S
C105        C106   1.398       .  A
C105        H109   1.086       .  S
C106        C107   1.411       .  A
C106       C1155   1.478       .  S
C107        H110   1.083       .  S
O111       Ni119   1.929       .  S
O111        C121   1.282       .  A
O112       Ni119   1.926       .  S
O112        C122   1.284       .  A
O113       Ni119   1.930       .  S
O113        C123   1.282       .  A
O114       Ni119   1.923       .  S
O114        C124   1.284       .  A
O115       Ni120   1.924       .  S
O115        C124   1.282       .  A
O116       Ni120   1.932       .  S
O116        C123   1.284       .  A
O117       Ni120   1.915       .  S
O117        C122   1.281       .  A
O118       Ni120   1.935       .  S
O118        C121   1.284       .  A
Ni119      Ni120   2.379       .  S
C121        C152   1.482       .  S
C122       C1298   1.517       .  S
C123        C137   1.481       .  S
C124       C1141   1.510       .  S
O125       Ni133   1.927       .  S
O125        C135   1.281       .  A
O126       Ni133   1.926       .  S
O126        C136   1.283       .  A
O127       Ni133   1.926       .  S
O127        C137   1.282       .  A
O128       Ni133   1.919       .  S
O128        C138   1.283       .  A
O129       Ni134   1.925       .  S
O129        C138   1.282       .  A
O130       Ni134   1.936       .  S
O130        C137   1.284       .  A
O131       Ni134   1.932       .  S
O131        C136   1.283       .  A
O132       Ni134   1.939       .  S
O132        C135   1.285       .  A
Ni133      Ni134   2.381       .  S
C135        C163   1.484       .  S
C136       C1270   1.497       .  S
C138       C1127   1.519       .  S
O139       Ni147   1.931       .  S
O139        C149   1.282       .  A
O140       Ni147   1.926       .  S
O140        C150   1.284       .  A
O141       Ni147   1.922       .  S
O141        C151   1.283       .  A
O142       Ni147   1.926       .  S
O142        C152   1.281       .  A
O143       Ni148   1.938       .  S
O143        C152   1.285       .  A
O144       Ni148   1.925       .  S
O144        C151   1.282       .  A
O145       Ni148   1.919       .  S
O145        C150   1.281       .  A
O146       Ni148   1.938       .  S
O146        C149   1.285       .  A
Ni147      Ni148   2.379       .  S
C149        C165   1.486       .  S
C150       C1099   1.516       .  S
C151       C1113   1.512       .  S
O153       Ni161   1.932       .  S
O153        C163   1.283       .  A
O154       Ni161   1.932       .  S
O154        C164   1.285       .  A
O155       Ni161   1.932       .  S
O155        C165   1.282       .  A
O156       Ni161   1.926       .  S
O156        C166   1.284       .  A
O157       Ni162   1.926       .  S
O157        C166   1.282       .  A
O158       Ni162   1.937       .  S
O158        C165   1.284       .  A
O159       Ni162   1.917       .  S
O159        C164   1.281       .  A
O160       Ni162   1.934       .  S
O160        C163   1.284       .  A
Ni161      Ni162   2.378       .  S
C164       C1085   1.521       .  S
C166       C1071   1.512       .  S
C167        C168   1.418       .  A
C167        C172   1.396       .  A
C167       C1116   1.484       .  S
C168        C169   1.421       .  A
C168        H173   1.082       .  S
C169        C170   1.398       .  A
C169       C1228   1.484       .  S
C170        C171   1.380       .  A
C170        H174   1.086       .  S
C171        C172   1.373       .  A
C171       C1057   1.452       .  S
C172        H175   1.085       .  S
C176        C177   1.421       .  A
C176        C181   1.400       .  A
C176       C1088   1.489       .  S
C177        C178   1.420       .  A
C177        H182   1.082       .  S
C178        C179   1.397       .  A
C178       C1214   1.493       .  S
C179        C180   1.385       .  A
C179        H183   1.086       .  S
C180        C181   1.379       .  A
C180       C1060   1.460       .  S
C181        H184   1.086       .  S
C185        C186   1.422       .  A
C185        C190   1.395       .  A
C185       C1144   1.482       .  S
C186        C187   1.421   1_655  A
C186        H191   1.082       .  S
C187        C188   1.393   1_455  A
C187       C1029   1.482       .  S
C188        C189   1.376       .  A
C188        H192   1.086   1_655  S
C189        C190   1.375       .  A
C189       C1043   1.448       .  S
C190        H193   1.086       .  S
C194        C195   1.420   1_455  A
C194        C199   1.395       .  A
C194       C1015   1.482       .  S
C195        C196   1.420       .  A
C195        H200   1.082       .  S
C196        C197   1.395       .  A
C196       C1102   1.482       .  S
C197        C198   1.374       .  A
C197        H201   1.086       .  S
C198        C199   1.376   1_655  A
C198       C1046   1.450       .  S
C199        H202   1.087       .  S
C203        C204   1.400       .  A
C203        C208   1.409   1_556  A
C203        C987   1.493       .  S
C204        C205   1.393   1_556  A
C204        H209   1.085       .  S
C205        C206   1.398       .  A
C205       C1001   1.487       .  S
C206        C207   1.406       .  A
C206        H210   1.084       .  S
C207        C208   1.410       .  A
C207        C973   1.482       .  S
C208        H211   1.083       .  S
C212        C213   1.400       .  A
C212        C217   1.409       .  A
C212        C945   1.486       .  S
C213        C214   1.403       .  A
C213        H218   1.084       .  S
C214        C215   1.402   1_554  A
C214       C1004   1.501   1_554  S
C215        C216   1.405       .  A
C215        H219   1.082       .  S
C216        C217   1.409   1_556  A
C216        C962   1.489       .  S
C217        H220   1.083       .  S
O221       Ni229   1.930       .  S
O221        C231   1.283       .  A
O222       Ni229   1.917       .  S
O222        C232   1.280       .  A
O223       Ni229   1.929       .  S
O223        C233   1.284       .  A
O224       Ni229   1.916       .  S
O224        C234   1.281       .  A
O225       Ni230   1.927       .  S
O225        C234   1.284       .  A
O226       Ni230   1.930       .  S
O226        C233   1.281       .  A
O227       Ni230   1.926       .  S
O227        C232   1.285       .  A
O228       Ni230   1.926       .  S
O228        C231   1.281       .  A
Ni229      Ni230   2.379       .  S
C231        C245   1.477       .  S
C232        C931   1.517       .  S
C233        C275   1.479       .  S
C234        C917   1.513       .  S
O235       Ni243   1.936       .  S
O235        C245   1.285       .  A
O236       Ni243   1.929       .  S
O236        C246   1.283       .  A
O237       Ni243   1.935       .  S
O237        C247   1.284       .  A
O238       Ni243   1.923       .  S
O238        C248   1.281       .  A
O239       Ni244   1.936       .  S
O239        C248   1.286       .  A
O240       Ni244   1.939       .  S
O240        C247   1.284       .  A
O241       Ni244   1.914       .  S
O241        C246   1.281       .  A
O242       Ni244   1.919       .  S
O242        C245   1.280       .  A
Ni243      Ni244   2.381       .  S
C246       C1018   1.518       .  S
C247        C261   1.490       .  S
C248        C903   1.499       .  S
O249       Ni257   1.943       .  S
O249        C259   1.286       .  A
O250       Ni257   1.936       .  S
O250        C260   1.285       .  A
O251       Ni257   1.945       .  S
O251        C261   1.286       .  A
O252       Ni257   1.923       .  S
O252        C262   1.280       .  A
O253       Ni258   1.925       .  S
O253        C262   1.283       .  A
O254       Ni258   1.929       .  S
O254        C261   1.282       .  A
O255       Ni258   1.910       .  S
O255        C260   1.280       .  A
O256       Ni258   1.913       .  S
O256        C259   1.279       .  A
Ni257      Ni258   2.383       .  S
C259        C273   1.478       .  S
C260       C1032   1.511       .  S
C262        C976   1.483       .  S
O263       Ni271   1.917       .  S
O263        C273   1.280       .  A
O264       Ni271   1.909       .  S
O264        C274   1.278       .  A
O265       Ni271   1.943       .  S
O265        C275   1.286       .  A
O266       Ni271   1.929       .  S
O266        C276   1.284       .  A
O267       Ni272   1.911       .  S
O267        C276   1.280       .  A
O268       Ni272   1.915       .  S
O268        C275   1.279       .  A
O269       Ni272   1.937       .  S
O269        C274   1.288       .  A
O270       Ni272   1.940       .  S
O270        C273   1.285       .  A
Ni271      Ni272   2.385       .  S
C274        C889   1.506       .  S
C276        C948   1.495       .  S
C277        C278   1.396       .  A
C277        C282   1.412       .  A
C277        C934   1.488       .  S
C278        C279   1.405       .  A
C278        H283   1.080       .  S
C279        C280   1.404       .  A
C279        C875   1.497       .  S
C280        C281   1.397       .  A
C280        H284   1.078       .  S
C281        C282   1.413       .  A
C281       C1130   1.492       .  S
C282        H285   1.082       .  S
C286        C287   1.419       .  A
C286        C291   1.395       .  A
C286        C892   1.490       .  S
C287        C288   1.419       .  A
C287        H292   1.082       .  S
C288        C289   1.394       .  A
C288       C1074   1.488       .  S
C289        C290   1.390       .  A
C289        H293   1.084       .  S
C290        C291   1.386       .  A
C290        C878   1.474       .  S
C291        H294   1.083       .  S
O295       Ni303   1.932       .  S
O295        C305   1.284       .  A
O296       Ni303   1.925       .  S
O296        C306   1.284       .  A
O297       Ni303   1.895       .  S
O297        C307   1.276       .  A
O298       Ni303   1.893       .  S
O298        C308   1.274       .  A
O299       Ni304   1.944       .  S
O299        C308   1.289       .  A
O300       Ni304   1.945       .  S
O300        C307   1.286       .  A
O301       Ni304   1.903       .  S
O301        C306   1.278       .  A
O302       Ni304   1.908       .  S
O302        C305   1.277       .  A
Ni303      Ni304   2.381       .  S
C305        C336   1.467       .  S
C306        C861   1.502       .  S
C307        C319   1.470       .  S
C308        C990   1.516       .  S
O309       Ni317   1.945       .  S
O309        C319   1.285       .  A
O310       Ni317   1.942       .  S
O310        C320   1.286       .  A
O311       Ni317   1.926       .  S
O311        C321   1.282       .  A
O312       Ni317   1.946       .  S
O312        C322   1.286       .  A
O313       Ni318   1.919       .  S
O313        C322   1.281       .  A
O314       Ni318   1.915       .  S
O314        C321   1.281       .  A
O315       Ni318   1.903       .  S
O315        C320   1.279       .  A
O316       Ni318   1.896       .  S
O316        C319   1.277       .  A
Ni317      Ni318   2.383       .  S
C320        C847   1.509       .  S
C321        C833   1.494       .  S
C322        C349   1.484       .  S
O323       Ni331   1.940       .  S
O323        C333   1.285       .  A
O324       Ni331   1.923       .  S
O324        C334   1.278       .  A
O325       Ni331   1.927       .  S
O325        C335   1.284       .  A
O326       Ni331   1.930       .  S
O326        C336   1.285       .  A
O327       Ni332   1.911       .  S
O327        C336   1.276       .  A
O328       Ni332   1.912       .  S
O328        C335   1.281       .  A
O329       Ni332   1.932       .  S
O329        C334   1.286       .  A
O330       Ni332   1.940       .  S
O330        C333   1.284       .  A
Ni331      Ni332   2.386       .  S
C333        C347   1.493       .  S
C334        C959   1.485       .  S
C335        C819   1.499       .  S
O337       Ni345   1.935       .  S
O337        C347   1.283       .  A
O338       Ni345   1.923       .  S
O338        C348   1.282       .  A
O339       Ni345   1.940       .  S
O339        C349   1.284       .  A
O340       Ni345   1.931       .  S
O340        C350   1.286       .  A
O341       Ni346   1.914       .  S
O341        C350   1.280       .  A
O342       Ni346   1.925       .  S
O342        C349   1.282       .  A
O343       Ni346   1.923       .  S
O343        C348   1.283       .  A
O344       Ni346   1.945       .  S
O344        C347   1.286       .  A
Ni345      Ni346   2.377       .  S
C348        C805   1.520       .  S
C350        C791   1.514       .  S
C351        C352   1.419       .  A
C351        C356   1.399       .  A
C351        C850   1.494       .  S
C352        C353   1.425       .  A
C352        H357   1.082       .  S
C353        C354   1.401       .  A
C353        C920   1.490       .  S
C354        C355   1.380       .  A
C354        H358   1.086       .  S
C355        C356   1.377       .  A
C355        C777   1.456       .  S
C356        H359   1.086       .  S
C360        C361   1.422       .  A
C360        C365   1.400       .  A
C360        C808   1.490       .  S
C361        C362   1.419       .  A
C361        H366   1.082       .  S
C362        C363   1.396       .  A
C362        C906   1.488       .  S
C363        C364   1.381       .  A
C363        H367   1.087       .  S
C364        C365   1.384       .  A
C364        C780   1.459       .  S
C365        H368   1.086       .  S
O369       Ni377   1.924       .  S
O369        C379   1.282       .  A
O370       Ni377   1.913       .  S
O370        C380   1.278       .  A
O371       Ni377   1.934       .  S
O371        C381   1.284       .  A
O372       Ni377   1.930       .  S
O372        C382   1.284       .  A
O373       Ni378   1.912       .  S
O373        C382   1.280       .  A
O374       Ni378   1.909       .  S
O374        C381   1.278       .  A
O375       Ni378   1.928       .  S
O375        C380   1.285       .  A
O376       Ni378   1.935       .  S
O376        C379   1.283       .  A
Ni377      Ni378   2.383       .  S
C379        C407   1.480       .  S
C380       C1368   1.487       .  S
C381        C395   1.468       .  S
C382        C763   1.518       .  S
O383       Ni391   1.933       .  S
O383        C393   1.284       .  A
O384       Ni391   1.921       .  S
O384        C394   1.282       .  A
O385       Ni391   1.919       .  S
O385        C395   1.281       .  A
O386       Ni391   1.919       .  S
O386        C396   1.280       .  A
O387       Ni392   1.924       .  S
O387        C396   1.284       .  A
O388       Ni392   1.925       .  S
O388        C395   1.281       .  A
O389       Ni392   1.910       .  S
O389        C394   1.281       .  A
O390       Ni392   1.917       .  S
O390        C393   1.280       .  A
Ni391      Ni392   2.386       .  S
C393        C421   1.474       .  S
C394       C1340   1.505       .  S
C396        C749   1.492       .  S
O397       Ni405   1.944       .  S
O397        C407   1.287       .  A
O398       Ni405   1.929       .  S
O398        C408   1.285       .  A
O399       Ni405   1.918       .  S
O399        C409   1.280       .  A
O400       Ni405   1.910       .  S
O400        C410   1.278       .  A
O401       Ni406   1.929       .  S
O401        C410   1.285       .  A
O402       Ni406   1.936       .  S
O402        C409   1.284       .  A
O403       Ni406   1.905       .  S
O403        C408   1.279       .  A
O404       Ni406   1.915       .  S
O404        C407   1.279       .  A
Ni405      Ni406   2.386       .  S
C408       C1172   1.500       .  S
C409        C423   1.475       .  S
C410        C735   1.489       .  S
O411       Ni419   1.930       .  S
O411        C421   1.284       .  A
O412       Ni419   1.926       .  S
O412        C422   1.282       .  A
O413       Ni419   1.930       .  S
O413        C423   1.282       .  A
O414       Ni419   1.916       .  S
O414        C424   1.281       .  A
O415       Ni420   1.920       .  S
O415        C424   1.282       .  A
O416       Ni420   1.923       .  S
O416        C423   1.282       .  A
O417       Ni420   1.919       .  S
O417        C422   1.282       .  A
O418       Ni420   1.922       .  S
O418        C421   1.279       .  A
Ni419      Ni420   2.384       .  S
C422       C1158   1.489       .  S
C424        C721   1.513       .  S
C425        C426   1.397       .  A
C425        C430   1.415       .  A
C425        C752   1.480       .  S
C426        C427   1.381       .  A
C426        H431   1.086       .  S
C427        C428   1.381       .  A
C427        C707   1.458       .  S
C428        C429   1.399       .  A
C428        H432   1.086       .  S
C429        C430   1.417       .  A
C429        C693   1.480       .  S
C430        H433   1.082       .  S
C434        C435   1.412       .  A
C434        C439   1.398       .  A
C434        C679   1.475       .  S
C435        C436   1.413       .  A
C435        H440   1.083       .  S
C436        C437   1.399       .  A
C436        C724   1.477       .  S
C437        C438   1.384       .  A
C437        H441   1.086       .  S
C438        C439   1.378       .  A
C438        C710   1.459       .  S
C439        H442   1.086       .  S
C443        C444   1.410       .  A
C443        C448   1.405       .  A
C443        C651   1.492       .  S
C444        C445   1.412   1_545  A
C444        H449   1.083       .  S
C445        C446   1.401       .  A
C445        C864   1.478       .  S
C446        C447   1.389   1_565  A
C446        H450   1.085       .  S
C447        C448   1.388       .  A
C447        C665   1.483       .  S
C448        H451   1.084       .  S
C452        C453   1.402       .  A
C452        C457   1.404   1_565  A
C452        C836   1.482       .  S
C453        C454   1.399   1_565  A
C453        H458   1.084       .  S
C454        C455   1.395       .  A
C454        C668   1.493       .  S
C455        C456   1.402       .  A
C455        H459   1.081       .  S
C456        C457   1.410       .  A
C456        C637   1.482       .  S
C457        H460   1.083       .  S
C461        C462   1.418   1_455  A
C461        C466   1.398       .  A
C461        C609   1.489       .  S
C462        C463   1.422       .  A
C462        H467   1.082       .  S
C463        C464   1.400       .  A
C463        C766   1.481       .  S
C464        C465   1.378       .  A
C464        H468   1.086       .  S
C465        C466   1.377   1_655  A
C465        C623   1.454       .  S
C466        H469   1.086       .  S
C470        C471   1.418   1_455  A
C470        C475   1.399       .  A
C470        C598   1.486       .  S
C471        C472   1.416       .  A
C471        H476   1.083       .  S
C472        C473   1.397       .  A
C472        C738   1.480       .  S
C473        C474   1.378       .  A
C473        H477   1.086       .  S
C474        C475   1.383   1_655  A
C474        C626   1.457       .  S
C475        H478   1.086       .  S
O479       Ni487   1.945       .  S
O479        C489   1.285       .  A
O480       Ni487   1.931       .  S
O480        C490   1.285       .  A
O481       Ni487   1.903       .  S
O481        C491   1.278       .  A
O482       Ni487   1.916       .  S
O482        C492   1.280       .  A
O483       Ni488   1.939       .  S
O483        C492   1.284       .  A
O484       Ni488   1.931       .  S
O484        C491   1.286       .  A
O485       Ni488   1.905       .  S
O485        C490   1.278       .  A
O486       Ni488   1.902       .  S
O486        C489   1.278       .  A
Ni487      Ni488   2.381       .  S
C489        C517   1.473       .  S
C490        C696   1.515       .  S
C491        C581   1.500       .  S
C492        C531   1.477       .  S
O493       Ni501   1.946       .  S
O493        C503   1.286       .  A
O494       Ni501   1.937       .  S
O494        C504   1.284       .  A
O495       Ni501   1.924       .  S
O495        C505   1.281       .  A
O496       Ni501   1.929       .  S
O496        C506   1.284       .  A
O497       Ni502   1.929       .  S
O497        C506   1.281       .  A
O498       Ni502   1.929       .  S
O498        C505   1.285       .  A
O499       Ni502   1.907       .  S
O499        C504   1.280       .  A
O500       Ni502   1.908       .  S
O500        C503   1.279       .  A
Ni501      Ni502   2.382       .  S
C503        C533   1.478       .  S
C504        C612   1.513       .  S
C505        C654   1.500       .  S
C506        C519   1.479       .  S
O507       Ni515   1.942       .  S
O507        C517   1.284       .  A
O508       Ni515   1.935       .  S
O508        C518   1.287       .  A
O509       Ni515   1.908       .  S
O509        C519   1.277       .  A
O510       Ni515   1.901       .  S
O510        C520   1.279       .  A
O511       Ni516   1.937       .  S
O511        C520   1.285       .  A
O512       Ni516   1.949       .  S
O512        C519   1.288       .  A
O513       Ni516   1.899       .  S
O513        C518   1.276       .  A
O514       Ni516   1.905       .  S
O514        C517   1.279       .  A
Ni515      Ni516   2.381       .  S
C518        C595   1.503       .  S
C520        C567   1.510       .  S
O521       Ni529   1.940       .  S
O521        C531   1.285       .  A
O522       Ni529   1.922       .  S
O522        C532   1.284       .  A
O523       Ni529   1.916       .  S
O523        C533   1.281       .  A
O524       Ni529   1.905       .  S
O524        C534   1.277       .  A
O525       Ni530   1.927       .  S
O525        C534   1.286       .  A
O526       Ni530   1.940       .  S
O526        C533   1.284       .  A
O527       Ni530   1.905       .  S
O527        C532   1.279       .  A
O528       Ni530   1.914       .  S
O528        C531   1.280       .  A
Ni529      Ni530   2.385       .  S
C532        C640   1.500       .  S
C534        C682   1.492       .  S
C535        C536   1.416       .  A
C535        C540   1.396       .  A
C535        C822   1.477       .  S
C536        C537   1.418       .  A
C536        H541   1.082       .  S
C537        C538   1.396       .  A
C537        C584   1.480       .  S
C538        C539   1.380       .  A
C538        H542   1.086       .  S
C539        C540   1.370       .  A
C539        C553   1.448       .  S
C540        H543   1.086       .  S
C544        C545   1.422       .  A
C544        C549   1.395       .  A
C544        C794   1.480       .  S
C545        C546   1.423       .  A
C545        H550   1.082       .  S
C546        C547   1.399       .  A
C546        C570   1.496       .  S
C547        C548   1.380       .  A
C547        H551   1.086       .  S
C548        C549   1.367       .  A
C548        C556   1.448       .  S
C549        H552   1.085       .  S
C553        C554   1.411       .  A
C553        C558   1.403       .  A
C554        C555   1.394       .  A
C554        C559   1.452       .  S
C555        C556   1.401       .  A
C555        C562   1.452       .  S
C556        C557   1.410       .  A
C557        C558   1.397       .  A
C557        C560   1.451       .  S
C558        C561   1.451       .  S
C559        N566   1.157       .  T
C560        N565   1.157       .  T
C561        N563   1.157       .  T
C562        N564   1.157       .  T
C567        C568   1.422       .  A
C567        C572   1.426       .  A
C568        C569   1.405       .  A
C568        C573   1.454       .  S
C569        C570   1.413       .  A
C569        C576   1.453       .  S
C570        C571   1.408       .  A
C571        C572   1.422       .  A
C571        C574   1.449       .  S
C572        C575   1.449       .  S
C573        N580   1.158       .  T
C574        N579   1.157       .  T
C575        N577   1.157       .  T
C576        N578   1.157       .  T
C581        C582   1.422       .  A
C581        C586   1.421       .  A
C582        C583   1.412       .  A
C582        C587   1.450       .  S
C583        C584   1.407       .  A
C583        C590   1.451       .  S
C584        C585   1.410       .  A
C585        C586   1.412       .  A
C585        C588   1.451       .  S
C586        C589   1.451       .  S
C587        N594   1.157       .  T
C588        N593   1.157       .  T
C589        N591   1.157       .  T
C590        N592   1.157       .  T
C595        C596   1.423       .  A
C595        C600   1.422       .  A
C596        C597   1.410       .  A
C596        C601   1.452       .  S
C597        C598   1.410       .  A
C597        C604   1.453       .  S
C598        C599   1.408       .  A
C599        C600   1.414       .  A
C599        C602   1.449       .  S
C600        C603   1.451       .  S
C601        N608   1.158       .  T
C602        N607   1.157       .  T
C603        N605   1.158       .  T
C604        N606   1.157       .  T
C609        C610   1.411       .  A
C609        C614   1.406       .  A
C610        C611   1.424       .  A
C610        C615   1.448       .  S
C611        C612   1.427       .  A
C611        C618   1.448       .  S
C612        C613   1.422       .  A
C613        C614   1.404       .  A
C613        C616   1.452       .  S
C614        C617   1.453       .  S
C615        N622   1.157       .  T
C616        N621   1.158       .  T
C617        N619   1.157       .  T
C618        N620   1.157       .  T
C623        C624   1.407       .  A
C623        C628   1.408       .  A
C624        C625   1.404       .  A
C624        C629   1.450       .  S
C625        C626   1.406       .  A
C625        C632   1.449       .  S
C626        C627   1.411       .  A
C627        C628   1.392       .  A
C627        C630   1.455       .  S
C628        C631   1.454       .  S
C629        N636   1.157       .  T
C630        N635   1.157       .  T
C631        N633   1.157       .  T
C632        N634   1.157       .  T
C637        C638   1.406       .  A
C637        C642   1.413       .  A
C638        C639   1.411       .  A
C638        C643   1.450       .  S
C639        C640   1.423       .  A
C639        C646   1.451       .  S
C640        C641   1.421       .  A
C641        C642   1.410       .  A
C641        C644   1.453       .  S
C642        C645   1.453       .  S
C643        N650   1.157       .  T
C644        N649   1.158       .  T
C645        N647   1.157       .  T
C646        N648   1.157       .  T
C651        C652   1.403       .  A
C651        C656   1.414       .  A
C652        C653   1.407       .  A
C652        C657   1.452       .  S
C653        C654   1.420       .  A
C653        C660   1.442       .  S
C654        C655   1.418       .  A
C655        C656   1.421       .  A
C655        C658   1.449       .  S
C656        C659   1.448       .  S
C657        N664   1.157       .  T
C658        N663   1.157       .  T
C659        N661   1.157       .  T
C660        N662   1.155       .  T
C665        C666   1.412   1_545  A
C665        C670   1.415       .  A
C666        C667   1.412   1_565  A
C666        C671   1.450       .  S
C667        C668   1.416       .  A
C667        C674   1.450   1_545  S
C668        C669   1.413       .  A
C669        C670   1.395       .  A
C669        C672   1.449       .  S
C670        C673   1.454       .  S
C671        N678   1.157       .  T
C672        N677   1.157       .  T
C673        N675   1.156       .  T
C674        N676   1.157       .  T
C679        C680   1.408       .  A
C679        C684   1.405       .  A
C680        C681   1.413       .  A
C680        C685   1.449       .  S
C681        C682   1.418       .  A
C681        C688   1.450       .  S
C682        C683   1.421       .  A
C683        C684   1.409       .  A
C683        C686   1.450       .  S
C684        C687   1.451       .  S
C685        N692   1.157       .  T
C686        N691   1.157       .  T
C687        N689   1.157       .  T
C688        N690   1.157       .  T
C693        C694   1.403       .  A
C693        C698   1.405       .  A
C694        C695   1.412       .  A
C694        C699   1.452       .  S
C695        C696   1.431       .  A
C695        C702   1.452       .  S
C696        C697   1.428       .  A
C697        C698   1.414       .  A
C697        C700   1.450       .  S
C698        C701   1.450       .  S
C699        N706   1.157       .  T
C700        N705   1.158       .  T
C701        N703   1.157       .  T
C702        N704   1.158       .  T
C707        C708   1.410       .  A
C707        C712   1.406       .  A
C708        C709   1.393       .  A
C708        C713   1.454       .  S
C709        C710   1.409       .  A
C709        C716   1.453       .  S
C710        C711   1.408       .  A
C711        C712   1.405       .  A
C711        C714   1.449       .  S
C712        C715   1.449       .  S
C713        N720   1.157       .  T
C714        N719   1.157       .  T
C715        N717   1.157       .  T
C716        N718   1.156       .  T
C721        C722   1.431       .  A
C721        C726   1.427       .  A
C722        C723   1.413       .  A
C722        C727   1.451       .  S
C723        C724   1.403       .  A
C723        C730   1.451       .  S
C724        C725   1.402       .  A
C725        C726   1.409       .  A
C725        C728   1.450       .  S
C726        C729   1.452       .  S
C727        N734   1.158       .  T
C728        N733   1.157       .  T
C729        N731   1.158       .  T
C730        N732   1.157       .  T
C735        C736   1.414       .  A
C735        C740   1.418       .  A
C736        C737   1.414       .  A
C736        C741   1.450       .  S
C737        C738   1.412       .  A
C737        C744   1.448       .  S
C738        C739   1.408       .  A
C739        C740   1.411       .  A
C739        C742   1.451       .  S
C740        C743   1.450       .  S
C741        N748   1.157       .  T
C742        N747   1.157       .  T
C743        N745   1.157       .  T
C744        N746   1.157       .  T
C749        C750   1.414       .  A
C749        C754   1.420       .  A
C750        C751   1.416       .  A
C750        C755   1.449       .  S
C751        C752   1.412       .  A
C751        C758   1.448       .  S
C752        C753   1.405       .  A
C753        C754   1.409       .  A
C753        C756   1.452       .  S
C754        C757   1.449       .  S
C755        N762   1.157       .  T
C756        N761   1.157       .  T
C757        N759   1.157       .  T
C758        N760   1.157       .  T
C763        C764   1.430       .  A
C763        C768   1.429       .  A
C764        C765   1.411       .  A
C764        C769   1.452       .  S
C765        C766   1.403       .  A
C765        C772   1.451       .  S
C766        C767   1.406       .  A
C767        C768   1.417       .  A
C767        C770   1.450       .  S
C768        C771   1.450       .  S
C769        N776   1.158       .  T
C770        N775   1.157       .  T
C771        N773   1.158       .  T
C772        N774   1.157       .  T
C777        C778   1.408       .  A
C777        C782   1.408       .  A
C778        C779   1.389       .  A
C778        C783   1.456       .  S
C779        C780   1.411       .  A
C779        C786   1.453       .  S
C780        C781   1.407       .  A
C781        C782   1.407       .  A
C781        C784   1.449       .  S
C782        C785   1.449       .  S
C783        N790   1.157       .  T
C784        N789   1.157       .  T
C785        N787   1.157       .  T
C786        N788   1.156       .  T
C791        C792   1.428       .  A
C791        C796   1.428       .  A
C792        C793   1.418       .  A
C792        C797   1.449       .  S
C793        C794   1.405       .  A
C793        C800   1.448       .  S
C794        C795   1.406       .  A
C795        C796   1.416       .  A
C795        C798   1.450       .  S
C796        C799   1.449       .  S
C797        N804   1.157       .  T
C798        N803   1.157       .  T
C799        N801   1.157       .  T
C800        N802   1.157       .  T
C805        C806   1.429       .  A
C805        C810   1.429       .  A
C806        C807   1.415       .  A
C806        C811   1.451       .  S
C807        C808   1.408       .  A
C807        C814   1.451       .  S
C808        C809   1.404       .  A
C809        C810   1.416       .  A
C809        C812   1.449       .  S
C810        C813   1.450       .  S
C811        N818   1.158       .  T
C812        N817   1.157       .  T
C813        N815   1.158       .  T
C814        N816   1.157       .  T
C819        C820   1.419       .  A
C819        C824   1.427       .  A
C820        C821   1.417       .  A
C820        C825   1.449       .  S
C821        C822   1.410       .  A
C821        C828   1.448       .  S
C822        C823   1.404       .  A
C823        C824   1.411       .  A
C823        C826   1.450       .  S
C824        C827   1.452       .  S
C825        N832   1.157       .  T
C826        N831   1.157       .  T
C827        N829   1.158       .  T
C828        N830   1.157       .  T
C833        C834   1.419       .  A
C833        C838   1.417       .  A
C834        C835   1.419       .  A
C834        C839   1.449       .  S
C835        C836   1.410       .  A
C835        C842   1.447       .  S
C836        C837   1.404       .  A
C837        C838   1.399       .  A
C837        C840   1.456       .  S
C838        C841   1.444       .  S
C839        N846   1.157       .  T
C840        N845   1.157       .  T
C841        N843   1.155       .  T
C842        N844   1.157       .  T
C847        C848   1.421       .  A
C847        C852   1.421       .  A
C848        C849   1.405       .  A
C848        C853   1.450       .  S
C849        C850   1.406       .  A
C849        C856   1.452       .  S
C850        C851   1.415       .  A
C851        C852   1.425       .  A
C851        C854   1.446       .  S
C852        C855   1.448       .  S
C853        N860   1.158       .  T
C854        N859   1.157       .  T
C855        N857   1.157       .  T
C856        N858   1.157       .  T
C861        C862   1.424       .  A
C861        C866   1.425       .  A
C862        C863   1.412       .  A
C862        C867   1.451       .  S
C863        C864   1.405       .  A
C863        C870   1.451       .  S
C864        C865   1.406       .  A
C865        C866   1.409       .  A
C865        C868   1.453       .  S
C866        C869   1.452       .  S
C867        N874   1.157       .  T
C868        N873   1.157       .  T
C869        N871   1.158       .  T
C870        N872   1.157       .  T
C875        C876   1.426       .  A
C875        C880   1.422       .  A
C876        C877   1.398       .  A
C876        C881   1.449       .  S
C877        C878   1.407       .  A
C877        C884   1.454       .  S
C878        C879   1.409       .  A
C879        C880   1.397       .  A
C879        C882   1.454       .  S
C880        C883   1.448       .  S
C881        N888   1.157       .  T
C882        N887   1.157       .  T
C883        N885   1.156       .  T
C884        N886   1.157       .  T
C889        C890   1.422       .  A
C889        C894   1.421       .  A
C890        C891   1.416       .  A
C890        C895   1.450       .  S
C891        C892   1.412       .  A
C891        C898   1.450       .  S
C892        C893   1.410       .  A
C893        C894   1.414       .  A
C893        C896   1.450       .  S
C894        C897   1.451       .  S
C895        N902   1.158       .  T
C896        N901   1.157       .  T
C897        N899   1.157       .  T
C898        N900   1.157       .  T
C903        C904   1.417       .  A
C903        C908   1.415       .  A
C904        C905   1.411       .  A
C904        C909   1.444       .  S
C905        C906   1.407       .  A
C905        C912   1.453       .  S
C906        C907   1.414       .  A
C907        C908   1.419       .  A
C907        C910   1.448       .  S
C908        C911   1.450       .  S
C909        N916   1.154       .  T
C910        N915   1.157       .  T
C911        N913   1.157       .  T
C912        N914   1.157       .  T
C917        C918   1.426       .  A
C917        C922   1.425       .  A
C918        C919   1.414       .  A
C918        C923   1.449       .  S
C919        C920   1.406       .  A
C919        C926   1.449       .  S
C920        C921   1.412       .  A
C921        C922   1.415       .  A
C921        C924   1.452       .  S
C922        C925   1.451       .  S
C923        N930   1.157       .  T
C924        N929   1.157       .  T
C925        N927   1.158       .  T
C926        N928   1.156       .  T
C931        C932   1.426       .  A
C931        C936   1.429       .  A
C932        C933   1.411       .  A
C932        C937   1.451       .  S
C933        C934   1.411       .  A
C933        C940   1.454       .  S
C934        C935   1.406       .  A
C935        C936   1.418       .  A
C935        C938   1.450       .  S
C936        C939   1.450       .  S
C937        N944   1.157       .  T
C938        N943   1.157       .  T
C939        N941   1.158       .  T
C940        N942   1.157       .  T
C945        C946   1.409       .  A
C945        C950   1.411       .  A
C946        C947   1.415       .  A
C946        C951   1.450       .  S
C947        C948   1.419       .  A
C947        C954   1.451       .  S
C948        C949   1.414       .  A
C949        C950   1.408       .  A
C949        C952   1.445       .  S
C950        C953   1.453       .  S
C951        N958   1.157       .  T
C952        N957   1.155       .  T
C953        N955   1.157       .  T
C954        N956   1.157       .  T
C959        C960   1.405       .  A
C959        C964   1.408       .  A
C960        C961   1.413       .  A
C960        C965   1.449       .  S
C961        C962   1.417       .  A
C961        C968   1.446       .  S
C962        C963   1.409       .  A
C963        C964   1.411       .  A
C963        C966   1.448       .  S
C964        C967   1.445       .  S
C965        N972   1.157       .  T
C966        N971   1.157       .  T
C967        N969   1.157       .  T
C968        N970   1.156       .  T
C973        C974   1.409       .  A
C973        C978   1.413       .  A
C974        C975   1.408       .  A
C974        C979   1.451       .  S
C975        C976   1.408       .  A
C975        C982   1.444       .  S
C976        C977   1.405       .  A
C977        C978   1.413       .  A
C977        C980   1.447       .  S
C978        C981   1.448       .  S
C979        N986   1.157       .  T
C980        N985   1.157       .  T
C981        N983   1.157       .  T
C982        N984   1.156       .  T
C987        C988   1.406       .  A
C987        C992   1.411       .  A
C988        C989   1.411       .  A
C988        C993   1.453       .  S
C989        C990   1.433       .  A
C989        C996   1.452       .  S
C990        C991   1.424       .  A
C991        C992   1.416       .  A
C991        C994   1.450       .  S
C992        C995   1.450       .  S
C993       N1000   1.157       .  T
C994        N999   1.157       .  T
C995        N997   1.157   1_556  T
C996        N998   1.158       .  T
C1001      C1002   1.415   1_554  A
C1001      C1006   1.414       .  A
C1002      C1003   1.392       .  A
C1002      C1007   1.453       .  S
C1003      C1004   1.410       .  A
C1003      C1010   1.447       .  S
C1004      C1005   1.416   1_556  A
C1005      C1006   1.417       .  A
C1005      C1008   1.448       .  S
C1006      C1009   1.448       .  S
C1007      N1014   1.157       .  T
C1008      N1013   1.157       .  T
C1009      N1011   1.157       .  T
C1010      N1012   1.156       .  T
C1015      C1016   1.406       .  A
C1015      C1020   1.407       .  A
C1016      C1017   1.419       .  A
C1016      C1021   1.450       .  S
C1017      C1018   1.429       .  A
C1017      C1024   1.450       .  S
C1018      C1019   1.429       .  A
C1019      C1020   1.411       .  A
C1019      C1022   1.453       .  S
C1020      C1023   1.454       .  S
C1021      N1028   1.157       .  T
C1022      N1027   1.158       .  T
C1023      N1025   1.157       .  T
C1024      N1026   1.158       .  T
C1029      C1030   1.410       .  A
C1029      C1034   1.406       .  A
C1030      C1031   1.418       .  A
C1030      C1035   1.450       .  S
C1031      C1032   1.422       .  A
C1031      C1038   1.449       .  S
C1032      C1033   1.428       .  A
C1033      C1034   1.411       .  A
C1033      C1036   1.453       .  S
C1034      C1037   1.453       .  S
C1035      N1042   1.157       .  T
C1036      N1041   1.158       .  T
C1037      N1039   1.157       .  T
C1038      N1040   1.157       .  T
C1043      C1044   1.407       .  A
C1043      C1048   1.407       .  A
C1044      C1045   1.395       .  A
C1044      C1049   1.453       .  S
C1045      C1046   1.409       .  A
C1045      C1052   1.453       .  S
C1046      C1047   1.408       .  A
C1047      C1048   1.395       .  A
C1047      C1050   1.452       .  S
C1048      C1051   1.453       .  S
C1049      N1056   1.157       .  T
C1050      N1055   1.157   1_655  T
C1051      N1053   1.157   1_655  T
C1052      N1054   1.157       .  T
C1057      C1058   1.407       .  A
C1057      C1062   1.404       .  A
C1058      C1059   1.403       .  A
C1058      C1063   1.450       .  S
C1059      C1060   1.405       .  A
C1059      C1066   1.448       .  S
C1060      C1061   1.414       .  A
C1061      C1062   1.392       .  A
C1061      C1064   1.450       .  S
C1062      C1065   1.456       .  S
C1063      N1070   1.157       .  T
C1064      N1069   1.156       .  T
C1065      N1067   1.157       .  T
C1066      N1068   1.157       .  T
C1071      C1072   1.423       .  A
C1071      C1076   1.424       .  A
C1072      C1073   1.418       .  A
C1072      C1077   1.449       .  S
C1073      C1074   1.410       .  A
C1073      C1080   1.449       .  S
C1074      C1075   1.409       .  A
C1075      C1076   1.413       .  A
C1075      C1078   1.454       .  S
C1076      C1079   1.450       .  S
C1077      N1084   1.157       .  T
C1078      N1083   1.157       .  T
C1079      N1081   1.156       .  T
C1080      N1082   1.157       .  T
C1085      C1086   1.430       .  A
C1085      C1090   1.432       .  A
C1086      C1087   1.416       .  A
C1086      C1091   1.449       .  S
C1087      C1088   1.402       .  A
C1087      C1094   1.449       .  S
C1088      C1089   1.406       .  A
C1089      C1090   1.416       .  A
C1089      C1092   1.451       .  S
C1090      C1093   1.451       .  S
C1091      N1098   1.158       .  T
C1092      N1097   1.157       .  T
C1093      N1095   1.158       .  T
C1094      N1096   1.157       .  T
C1099      C1100   1.429       .  A
C1099      C1104   1.427       .  A
C1100      C1101   1.418       .  A
C1100      C1105   1.450       .  S
C1101      C1102   1.406       .  A
C1101      C1108   1.449       .  S
C1102      C1103   1.406       .  A
C1103      C1104   1.413       .  A
C1103      C1106   1.453       .  S
C1104      C1107   1.449       .  S
C1105      N1112   1.158       .  T
C1106      N1111   1.157       .  T
C1107      N1109   1.157       .  T
C1108      N1110   1.157       .  T
C1113      C1114   1.428       .  A
C1113      C1118   1.425       .  A
C1114      C1115   1.413       .  A
C1114      C1119   1.448       .  S
C1115      C1116   1.405       .  A
C1115      C1122   1.452       .  S
C1116      C1117   1.407       .  A
C1117      C1118   1.420       .  A
C1117      C1120   1.447       .  S
C1118      C1121   1.448       .  S
C1119      N1126   1.157       .  T
C1120      N1125   1.157       .  T
C1121      N1123   1.157       .  T
C1122      N1124   1.157       .  T
C1127      C1128   1.430       .  A
C1127      C1132   1.425       .  A
C1128      C1129   1.420       .  A
C1128      C1133   1.450       .  S
C1129      C1130   1.407       .  A
C1129      C1136   1.450       .  S
C1130      C1131   1.413       .  A
C1131      C1132   1.410       .  A
C1131      C1134   1.453       .  S
C1132      C1135   1.454       .  S
C1133      N1140   1.158       .  T
C1134      N1139   1.157       .  T
C1135      N1137   1.158       .  T
C1136      N1138   1.157       .  T
C1141      C1142   1.422       .  A
C1141      C1146   1.426       .  A
C1142      C1143   1.418       .  A
C1142      C1147   1.449       .  S
C1143      C1144   1.410       .  A
C1143      C1150   1.449       .  S
C1144      C1145   1.405       .  A
C1145      C1146   1.413       .  A
C1145      C1148   1.452       .  S
C1146      C1149   1.449       .  S
C1147      N1154   1.157       .  T
C1148      N1153   1.157       .  T
C1149      N1151   1.157       .  T
C1150      N1152   1.157       .  T
C1155      C1156   1.403       .  A
C1155      C1160   1.413       .  A
C1156      C1157   1.405       .  A
C1156      C1161   1.454       .  S
C1157      C1158   1.417       .  A
C1157      C1164   1.444       .  S
C1158      C1159   1.413       .  A
C1159      C1160   1.416       .  A
C1159      C1162   1.449       .  S
C1160      C1163   1.448       .  S
C1161      N1168   1.157       .  T
C1162      N1167   1.157       .  T
C1163      N1165   1.157       .  T
C1164      N1166   1.154       .  T
C1169      C1170   1.406       .  A
C1169      C1174   1.411       .  A
C1170      C1171   1.414       .  A
C1170      C1175   1.450       .  S
C1171      C1172   1.422       .  A
C1171      C1178   1.450       .  S
C1172      C1173   1.421       .  A
C1173      C1174   1.409       .  A
C1173      C1176   1.452       .  S
C1174      C1177   1.453       .  S
C1175      N1182   1.157       .  T
C1176      N1181   1.158       .  T
C1177      N1179   1.157       .  T
C1178      N1180   1.157       .  T
C1183      C1184   1.409       .  A
C1183      C1188   1.415       .  A
C1184      C1185   1.409       .  A
C1184      C1189   1.449       .  S
C1185      C1186   1.410       .  A
C1185      C1192   1.449       .  S
C1186      C1187   1.411       .  A
C1187      C1188   1.393       .  A
C1187      C1190   1.457       .  S
C1188      C1191   1.452       .  S
C1189      N1196   1.157       .  T
C1190      N1195   1.157       .  T
C1191      N1193   1.156       .  T
C1192      N1194   1.157       .  T
C1197      C1198   1.427       .  A
C1197      C1202   1.425       .  A
C1198      C1199   1.411       .  A
C1198      C1203   1.451       .  S
C1199      C1200   1.408       .  A
C1199      C1206   1.452       .  S
C1200      C1201   1.408       .  A
C1201      C1202   1.413       .  A
C1201      C1204   1.451       .  S
C1202      C1205   1.451       .  S
C1203      N1210   1.158       .  T
C1204      N1209   1.157       .  T
C1205      N1207   1.158       .  T
C1206      N1208   1.157       .  T
C1211      C1212   1.414       .  A
C1211      C1216   1.407       .  A
C1212      C1213   1.415       .  A
C1212      C1217   1.445       .  S
C1213      C1214   1.408       .  A
C1213      C1220   1.449       .  S
C1214      C1215   1.419       .  A
C1215      C1216   1.411       .  A
C1215      C1218   1.449       .  S
C1216      C1219   1.451       .  S
C1217      N1224   1.156       .  T
C1218      N1223   1.157       .  T
C1219      N1221   1.157       .  T
C1220      N1222   1.157       .  T
C1225      C1226   1.428       .  A
C1225      C1230   1.427       .  A
C1226      C1227   1.419       .  A
C1226      C1231   1.450       .  S
C1227      C1228   1.408       .  A
C1227      C1234   1.451       .  S
C1228      C1229   1.406       .  A
C1229      C1230   1.409       .  A
C1229      C1232   1.453       .  S
C1230      C1233   1.453       .  S
C1231      N1238   1.158       .  T
C1232      N1237   1.157       .  T
C1233      N1235   1.158       .  T
C1234      N1236   1.157       .  T
C1239      C1240   1.420       .  A
C1239      C1244   1.419       .  A
C1240      C1241   1.409       .  A
C1240      C1245   1.445       .  S
C1241      C1242   1.405       .  A
C1241      C1248   1.451       .  S
C1242      C1243   1.410       .  A
C1243      C1244   1.419       .  A
C1243      C1246   1.448       .  S
C1244      C1247   1.449       .  S
C1245      N1252   1.155       .  T
C1246      N1251   1.157       .  T
C1247      N1249   1.157       .  T
C1248      N1250   1.157       .  T
C1253      C1254   1.416       .  A
C1253      C1258   1.428       .  A
C1254      C1255   1.417       .  A
C1254      C1259   1.450       .  S
C1255      C1256   1.413       .  A
C1255      C1262   1.450       .  S
C1256      C1257   1.402       .  A
C1257      C1258   1.405       .  A
C1257      C1260   1.457       .  S
C1258      C1261   1.450       .  S
C1259      N1266   1.157       .  T
C1260      N1265   1.158       .  T
C1261      N1263   1.156       .  T
C1262      N1264   1.157       .  T
C1267      C1268   1.410       .  A
C1267      C1272   1.402       .  A
C1268      C1269   1.420       .  A
C1268      C1273   1.445       .  S
C1269      C1270   1.415       .  A
C1269      C1276   1.448       .  S
C1270      C1271   1.420       .  A
C1271      C1272   1.410       .  A
C1271      C1274   1.442       .  S
C1272      C1275   1.451       .  S
C1273      N1280   1.157       .  T
C1274      N1279   1.154       .  T
C1275      N1277   1.157       .  T
C1276      N1278   1.157       .  T
C1281      C1282   1.409       .  A
C1281      C1286   1.413       .  A
C1282      C1283   1.407       .  A
C1282      C1287   1.456       .  S
C1283      C1284   1.426       .  A
C1283      C1290   1.450       .  S
C1284      C1285   1.420       .  A
C1285      C1286   1.423       .  A
C1285      C1288   1.449       .  S
C1286      C1289   1.446       .  S
C1287      N1294   1.157       .  T
C1288      N1293   1.157       .  T
C1289      N1291   1.156       .  T
C1290      N1292   1.157       .  T
C1295      C1296   1.407       .  A
C1295      C1300   1.403       .  A
C1296      C1297   1.416       .  A
C1296      C1301   1.451       .  S
C1297      C1298   1.431       .  A
C1297      C1304   1.451       .  S
C1298      C1299   1.427       .  A
C1299      C1300   1.414       .  A
C1299      C1302   1.450       .  S
C1300      C1303   1.447       .  S
C1301      N1308   1.157       .  T
C1302      N1307   1.158       .  T
C1303      N1305   1.156       .  T
C1304      N1306   1.158       .  T
C1309      C1310   1.408       .  A
C1309      C1314   1.407       .  A
C1310      C1311   1.411       .  A
C1310      C1315   1.448       .  S
C1311      C1312   1.408       .  A
C1311      C1318   1.448       .  S
C1312      C1313   1.416       .  A
C1313      C1314   1.392       .  A
C1313      C1316   1.453       .  S
C1314      C1317   1.456       .  S
C1315      N1322   1.157       .  T
C1316      N1321   1.155       .  T
C1317      N1319   1.156       .  T
C1318      N1320   1.157       .  T
C1323      C1324   1.409       .  A
C1323      C1328   1.409       .  A
C1324      C1325   1.418       .  A
C1324      C1329   1.448       .  S
C1325      C1326   1.419       .  A
C1325      C1332   1.449       .  S
C1326      C1327   1.421       .  A
C1327      C1328   1.407       .  A
C1327      C1330   1.453       .  S
C1328      C1331   1.454       .  S
C1329      N1336   1.157       .  T
C1330      N1335   1.158       .  T
C1331      N1333   1.157       .  T
C1332      N1334   1.157       .  T
C1337      C1338   1.413       .  A
C1337      C1342   1.406       .  A
C1338      C1339   1.408       .  A
C1338      C1343   1.454       .  S
C1339      C1340   1.422       .  A
C1339      C1346   1.453       .  S
C1340      C1341   1.425       .  A
C1341      C1342   1.415       .  A
C1341      C1344   1.451       .  S
C1342      C1345   1.450       .  S
C1343      N1350   1.157       .  T
C1344      N1349   1.158       .  T
C1345      N1347   1.157       .  T
C1346      N1348   1.158       .  T
C1351      C1352   1.425       .  A
C1351      C1356   1.431       .  A
C1352      C1353   1.411       .  A
C1352      C1357   1.451       .  S
C1353      C1354   1.410       .  A
C1353      C1360   1.453       .  S
C1354      C1355   1.406       .  A
C1355      C1356   1.413       .  A
C1355      C1358   1.453       .  S
C1356      C1359   1.451       .  S
C1357      N1364   1.157       .  T
C1358      N1363   1.157       .  T
C1359      N1361   1.158       .  T
C1360      N1362   1.157       .  T
C1365      C1366   1.410       .  A
C1365      C1370   1.407       .  A
C1366      C1367   1.415       .  A
C1366      C1371   1.448       .  S
C1367      C1368   1.415       .  A
C1367      C1374   1.449       .  S
C1368      C1369   1.414       .  A
C1369      C1370   1.405       .  A
C1369      C1372   1.446       .  S
C1370      C1373   1.454       .  S
C1371      N1378   1.157       .  T
C1372      N1377   1.155       .  T
C1373      N1375   1.157       .  T
C1374      N1376   1.157       .  T
C1379      C1380   1.424       .  A
C1379      C1384   1.413   1_556  A
C1380      C1381   1.406       .  A
C1380      C1385   1.449       .  S
C1381      C1382   1.416       .  A
C1381      C1388   1.453       .  S
C1382      C1383   1.423   1_556  A
C1383      C1384   1.404       .  A
C1383      C1386   1.450       .  S
C1384      C1387   1.453       .  S
C1385      N1392   1.158       .  T
C1386      N1391   1.158       .  T
C1387      N1389   1.157       .  T
C1388      N1390   1.157       .  T
